file 210760 1737059180                                          
version 3
run CircleMobility-0-20250116-20:26:04-4792
attr configname CircleMobility
attr datetime 20250116-20:26:04
attr datetimef 20250116-202604
attr experiment CircleMobility
attr inifile SatelliteEnvironment.ini
attr iterationvars ""
attr iterationvarsd ""
attr iterationvarsf ""
attr measurement ""
attr network leosatelliteenvironment.SatelliteNetwork
attr processid 4792
attr repetition 0
attr replication #0
attr resultdir results
attr runnumber 0
attr seedset 0
config image-path ../../inet4.5/images
config extends "SatelliteNetwork, Area, Update"
config *.satellite1.mobility.typename CircleMobility
config *.satellite1.mobility.cx 600m
config *.satellite1.mobility.cy 300m
config *.satellite1.mobility.r 150m
config *.satellite1.mobility.startAngle 0deg
config *.satellite1.mobility.speed 40mps
config *.satellite2.mobility.typename CircleMobility
config *.satellite2.mobility.cx 600m
config *.satellite2.mobility.cy 300m
config *.satellite2.mobility.r 150m
config *.satellite2.mobility.startAngle 180deg
config *.satellite2.mobility.speed 40mps
config *.visualizer.*.mobilityVisualizer.displayMobilityTrajectories true
config *.visualizer.*.mobilityVisualizer.trajectoryLineColor "\"blue\""
config *.visualizer.*.mobilityVisualizer.trajectoryLineWidth 2
config *.*.ipv4.arp.typename GlobalArp
config *.userTerminal.ipv4.address "\"192.168.1.1\""
config *.userTerminal.ipv4.netmask "\"255.255.255.248\""
config *.satellite1.ipv4.address "\"192.168.1.2\""
config *.satellite1.ipv4.netmask "\"255.255.255.248\""
config *.satellite2.ipv4.address "\"192.168.1.4\""
config *.satellite2.ipv4.netmask "\"255.255.255.248\""
config *.groundStation.ipv4.address "\"192.168.1.3\""
config *.groundStation.ipv4.netmask "\"255.255.255.248\""
config *.configurator.config "xmldoc(\"SatelliteRoutingTable.xml\")"
config **.routingTable.debug true
config *.configurator.optimizeRoutes false
config *.userTerminal.numApps 2
config *.userTerminal.app[0].typename TcpClientApp
config *.userTerminal.app[0].io.connectAddress "\"192.168.1.2\""
config *.userTerminal.app[0].io.connectPort 8080
config *.userTerminal.app[0].source.productionInterval "uniform(0.5s, 1s)"
config *.userTerminal.app[0].source.packetLength "intuniform(100B, 500B)"
config *.userTerminal.app[1].typename UdpApp
config *.userTerminal.app[1].io.localPort 1000
config *.userTerminal.app[1].io.destAddress "\"192.168.1.2\""
config *.userTerminal.app[1].io.destPort 1000
config *.userTerminal.app[1].source.productionInterval "uniform(0.5s, 1s)"
config *.userTerminal.app[1].source.packetLength "intuniform(100B, 500B)"
config *.satellite*.numApps 3
config *.satellite*.app[0].typename TcpServerApp
config *.satellite*.app[0].listener.localPort 8080
config *.satellite*.app[1].typename UdpRequestResponseApp
config *.satellite*.app[1].io.localPort 1000
config *.satellite*.app[1].io.destAddress "\"192.168.1.3\""
config *.satellite*.app[1].io.destPort 1000
config *.satellite*.app[1].sink.tokenGenerator[0].numTokensPerPacket "intuniform(10, 20)"
config *.satellite*.app[1].sink.tokenGenerator[1].numTokensPerPacket "intuniform(5, 10)"
config *.satellite*.app[1].source.provider[0].packetLength "intuniform(100B, 1000B)"
config *.satellite*.app[1].source.provider[0].providingInterval "uniform(0s, 0.2s)"
config *.satellite*.app[2].typename TcpClientApp
config *.satellite*.app[2].io.connectAddress "\"192.168.1.3\""
config *.satellite*.app[2].io.connectPort 8000
config *.satellite*.app[2].source.productionInterval "uniform(0.5s, 1s)"
config *.satellite*.app[2].source.packetLength "intuniform(100B, 500B)"
config *.groundStation.numApps 2
config *.groundStation.app[0].typename TcpServerApp
config *.groundStation.app[0].listener.localPort 8000
config *.groundStation.app[1].typename UdpRequestResponseApp
config *.groundStation.app[1].io.localPort 1000
config *.groundStation.app[1].io.destAddress "\"192.168.1.2\""
config *.groundStation.app[1].io.destPort 1000
config *.groundStation.app[1].sink.tokenGenerator[0].numTokensPerPacket "intuniform(10, 20)"
config *.groundStation.app[1].sink.tokenGenerator[1].numTokensPerPacket "intuniform(5, 10)"
config *.groundStation.app[1].source.provider[0].packetLength "intuniform(100B, 1000B)"
config *.groundStation.app[1].source.provider[0].providingInterval "uniform(0s, 0.2s)"
config *.satellite1.numApps 2
config *.satellite1.app[0].typename TcpClientApp
config *.satellite1.app[0].io.connectAddress "\"192.168.1.4\""
config *.satellite1.app[0].io.connectPort 8080
config *.satellite1.app[0].source.productionInterval "uniform(0s, 20s)"
config *.satellite1.app[0].source.packetLength "intuniform(100B, 200B)"
config *.satellite1.app[0].source.packetData "intuniform(0, 1)"
config *.satellite1.app[1].typename UdpApp
config *.satellite1.app[1].io.localPort 1000
config *.satellite1.app[1].io.destAddress "\"192.168.1.4\""
config *.satellite1.app[1].io.destPort 1000
config *.satellite1.app[1].source.productionInterval 1s
config *.satellite1.app[1].source.packetLength "intuniform(100B, 200B)"
config *.satellite1.app[1].source.packetData "intuniform(0, 1)"
config *.satellite2.numApps 2
config *.satellite2.app[0].typename TcpServerApp
config *.satellite2.app[0].listener.localPort 8080
config *.satellite2.app[1].typename UdpRequestResponseApp
config *.satellite2.app[1].io.localPort 1000
config *.satellite2.app[1].io.destAddress "\"192.168.1.2\""
config *.satellite2.app[1].io.destPort 1000
config *.satellite2.app[1].sink.tokenGenerator[0].numTokensPerPacket "intuniform(10, 20)"
config *.satellite2.app[1].sink.tokenGenerator[1].numTokensPerPacket "intuniform(5, 10)"
config *.satellite2.app[1].source.provider[0].packetLength "intuniform(100B, 1000B)"
config *.satellite2.app[1].source.provider[0].providingInterval "uniform(0s, 0.2s)"
config *.satellite2.wlan[0].typename Ieee80211Interface
config *.satellite1.wlan[0].typename Ieee80211Interface
config *.userTerminal.wlan[0].radio.antenna.typename CosineAntenna
config *.userTerminal.wlan[0].radio.antenna.beamWidth 30deg
config *.userTerminal.wlan[0].radio.antenna.maxGain 10dB
config *.userTerminal.wlan[0].radio.antenna.minGain -10dB
config *.userTerminal.wlan[0].radio.transmitter.power 25mW
config *.groundStation.wlan[0].radio.antenna.typename CosineAntenna
config *.groundStation.wlan[0].radio.antenna.beamWidth 25deg
config *.groundStation.wlan[0].radio.antenna.maxGain 10dB
config *.groundStation.wlan[0].radio.antenna.minGain -10dB
config *.groundStation.wlan[0].radio.transmitter.power 25mW
config *.radioMedium.transmissionPathFilter "\"*.userTerminal wlan[0] <-> *.satellite1 wlan[0]; *.satellite1 wlan[0] <-> *.groundStation wlan[0]; *.satellite1 wlan[0] <-> *.satellite2 wlan[0]\""
config **.wlan[*].typename Ieee80211Interface
config **.wlan[*].dataRate 10Mbps
config *.visualizer.*.radioVisualizer.displayRadios true
config *.visualizer.*.radioVisualizer.displayAntennaLobes true
config *.visualizer.*.dataLinkVisualizer.displayLinks true
config *.visualizer.*.transportConnectionVisualizer.displayConnections true
config *.radioMedium.typename Ieee80211ScalarRadioMedium
config *.radioMedium.datapath "\"default\""
config **.debug true
config **.wlan[*].radio.transmitter.debug true
config **.wlan[*].radio.receiver.debug true
config **.constraintAreaMinX 0m
config **.constraintAreaMinY 0m
config **.constraintAreaMinZ 0m
config **.constraintAreaMaxX 1000m
config **.constraintAreaMaxY 600m
config **.constraintAreaMaxZ 0m
config **.updateInterval 0.1s
config network leosatelliteenvironment.SatelliteNetwork

vector 0 SatelliteNetwork.userTerminal.lo[0].lo rcvdPkFromHl:vector(packetBytes) ETV
attr interpolationmode none
attr recordingmode vector(packetBytes)
attr source packetReceivedFromUpper
attr title "packets received from higher layer, packetBytes"
vector 1 SatelliteNetwork.userTerminal.lo[0].lo passedUpPk:vector(packetBytes) ETV
attr interpolationmode none
attr recordingmode vector(packetBytes)
attr source packetSentToUpper
attr title "packets passed to higher layer, packetBytes"
vector 2 SatelliteNetwork.userTerminal.lo[0] packetDropInterfaceDown:vector(packetBytes) ETV
attr interpolationmode none
attr recordingmode vector(packetBytes)
attr source packetDropReasonIsInterfaceDown(packetDropped)
attr title "packet drops: interface down, packetBytes"
vector 3 SatelliteNetwork.userTerminal.lo[0] packetDropNoCarrier:vector(packetBytes) ETV
attr interpolationmode none
attr recordingmode vector(packetBytes)
attr source packetDropReasonIsNoCarrier(packetDropped)
attr title "packet drops: no carrier, packetBytes"
vector 4 SatelliteNetwork.userTerminal.wlan[0].mac.dcf.channelAccess.pendingQueue queueLength:vector ETV
attr autoWarmupFilter false
attr interpolationmode sample-hold
attr recordingmode vector
attr source "warmup(atomic(constant0(packetPushEnded) + count(packetPushStarted) - count(packetPulled) - count(packetRemoved) - count(packetDropped)))"
attr title "queue length"
attr unit pk
vector 5 SatelliteNetwork.userTerminal.wlan[0].mac.dcf.channelAccess.pendingQueue queueBitLength:vector ETV
attr autoWarmupFilter false
attr interpolationmode sample-hold
attr recordingmode vector
attr source "warmup(atomic(constant0(packetPushEnded) + sum(packetLength(packetPushStarted)) - sum(packetLength(packetPulled)) - sum(packetLength(packetRemoved)) - sum(packetLength(packetDropped))))"
attr title "queue bit length"
attr unit b
vector 6 SatelliteNetwork.userTerminal.wlan[0].mac.dcf.channelAccess.pendingQueue queueingTime:vector ETV
attr interpolationmode none
attr recordingmode vector
attr source queueingTime(packetPulled)
attr title "queueing times"
attr unit s
vector 7 SatelliteNetwork.userTerminal.wlan[0].mac.dcf.channelAccess.pendingQueue incomingPacketLengths:vector ETV
attr interpolationmode none
attr recordingmode vector
attr source packetLength(packetPushStarted)
attr title "incoming packet lengths"
attr unit b
vector 8 SatelliteNetwork.userTerminal.wlan[0].mac.dcf.channelAccess.pendingQueue incomingDataRate:vector ETV
attr interpolationmode linear
attr recordingmode vector
attr source throughput(packetPushStarted)
attr title "incoming datarate"
attr unit bps
vector 9 SatelliteNetwork.userTerminal.wlan[0].mac.dcf.channelAccess.pendingQueue outgoingPacketLengths:vector ETV
attr interpolationmode none
attr recordingmode vector
attr source packetLength(packetPulled)
attr title "outgoing packet lengths"
attr unit b
vector 10 SatelliteNetwork.userTerminal.wlan[0].mac.dcf.channelAccess.pendingQueue outgoingDataRate:vector ETV
attr interpolationmode linear
attr recordingmode vector
attr source throughput(packetPulled)
attr title "outgoing datarate"
attr unit bps
vector 11 SatelliteNetwork.userTerminal.wlan[0].mac.dcf.channelAccess.pendingQueue droppedPacketLengthsQueueOverflow:vector ETV
attr interpolationmode none
attr recordingmode vector
attr source packetLength(packetDropReasonIsQueueOverflow(packetDropped))
attr title "dropped packet lengths: queue overflow"
attr unit b
vector 12 SatelliteNetwork.userTerminal.wlan[0].mac.dcf.channelAccess.pendingQueue flowQueueingTime:vector ETV
attr interpolationmode none
attr recordingmode vector
attr source queueingTime(demuxFlow(packetPulled))
attr title "flow queueing times"
attr unit s
vector 13 SatelliteNetwork.userTerminal.wlan[0].mac.dcf.channelAccess.pendingQueue flowIncomingDataRate:vector ETV
attr interpolationmode linear
attr recordingmode vector
attr source throughput(flowPacketLength(demuxFlow(packetPushStarted)))
attr title "flow specific incoming data rate"
attr unit bps
vector 14 SatelliteNetwork.userTerminal.wlan[0].mac.dcf.channelAccess.pendingQueue flowOutgoingDataRate:vector ETV
attr interpolationmode linear
attr recordingmode vector
attr source throughput(flowPacketLength(demuxFlow(packetPulled)))
attr title "flow specific outgoing data rate"
attr unit bps
vector 15 SatelliteNetwork.userTerminal.wlan[0].mac.dcf.channelAccess.inProgressFrames queueingTime:vector ETV
attr interpolationmode none
attr recordingmode vector
attr source queueingTime(packetDequeued)
attr title "queueing times"
vector 16 SatelliteNetwork.userTerminal.wlan[0].mac.dcf.channelAccess.inProgressFrames queueLength:vector ETV
attr autoWarmupFilter false
attr interpolationmode sample-hold
attr recordingmode vector
attr source "warmup(count(packetEnqueued) - count(packetDequeued))"
attr title "queue length"
vector 17 SatelliteNetwork.userTerminal.wlan[0].mac.dcf.channelAccess.contention backoffPeriodGenerated:vector ETV
attr interpolationmode none
attr recordingmode vector
attr title "backoff periods"
vector 18 SatelliteNetwork.userTerminal.wlan[0].mac.dcf.channelAccess.contention backoffActive:vector ETV
attr autoWarmupFilter false
attr interpolationmode sample-hold
attr recordingmode vector
attr source warmup(count(backoffStarted)-count(backoffStopped))
attr title "backoff active"
vector 19 SatelliteNetwork.userTerminal.wlan[0].mac.dcf.channelAccess.contention stateChanged:vector ETV
attr enum IDLE,DEFER,IFS_AND_BACKOFF
attr interpolationmode none
attr recordingmode vector
attr title "contention state changed"
attr type enum
vector 20 SatelliteNetwork.userTerminal.wlan[0].mac.dcf.recipientMacDataService packetDropDuplicateDetected:vector(packetBytes) ETV
attr interpolationmode none
attr recordingmode vector(packetBytes)
attr source packetDropReasonIsDuplicateDetected(packetDropped)
attr title "packet drops: duplicate detected, packetBytes"
vector 21 SatelliteNetwork.userTerminal.wlan[0].mac.dcf.recoveryProcedure contentionWindowChanged:vector ETV
attr interpolationmode sample-hold
attr recordingmode vector
attr title "contention window"
vector 22 SatelliteNetwork.userTerminal.wlan[0].mac.dcf packetSentToPeer:vector(packetBytes) ETV
attr interpolationmode none
attr recordingmode vector(packetBytes)
attr title "packets sent, packetBytes"
vector 23 SatelliteNetwork.userTerminal.wlan[0].mac.dcf packetSentToPeerUnicast:vector(packetBytes) ETV
attr interpolationmode none
attr recordingmode vector(packetBytes)
attr source ieee80211Unicast(packetSentToPeer)
attr title "packets sent: unicast, packetBytes"
vector 24 SatelliteNetwork.userTerminal.wlan[0].mac.dcf packetSentToPeerMulticast:vector(packetBytes) ETV
attr interpolationmode none
attr recordingmode vector(packetBytes)
attr source ieee80211Multicast(packetSentToPeer)
attr title "packets sent: multicast, packetBytes"
vector 25 SatelliteNetwork.userTerminal.wlan[0].mac.dcf packetSentToPeerBroadcast:vector(packetBytes) ETV
attr interpolationmode none
attr recordingmode vector(packetBytes)
attr source ieee80211Broadcast(packetSentToPeer)
attr title "packets sent: broadcast , packetBytes"
vector 26 SatelliteNetwork.userTerminal.wlan[0].mac.dcf packetSentToPeerWithRetry:vector(packetBytes) ETV
attr interpolationmode none
attr recordingmode vector(packetBytes)
attr source ieee80211Retry(packetSentToPeer)
attr title "packets sent: with retry, packetBytes"
vector 27 SatelliteNetwork.userTerminal.wlan[0].mac.dcf packetSentToPeerWithoutRetry:vector(packetBytes) ETV
attr interpolationmode none
attr recordingmode vector(packetBytes)
attr source ieee80211NotRetry(packetSentToPeer)
attr title "packets sent: without retry, packetBytes"
vector 28 SatelliteNetwork.userTerminal.wlan[0].mac.dcf packetReceivedFromPeer:vector(packetBytes) ETV
attr interpolationmode none
attr recordingmode vector(packetBytes)
attr title "packets received, packetBytes"
vector 29 SatelliteNetwork.userTerminal.wlan[0].mac.dcf packetReceivedFromPeerUnicast:vector(packetBytes) ETV
attr interpolationmode none
attr recordingmode vector(packetBytes)
attr source ieee80211Unicast(packetReceivedFromPeer)
attr title "packets received: unicast, packetBytes"
vector 30 SatelliteNetwork.userTerminal.wlan[0].mac.dcf packetReceivedFromPeerMulticast:vector(packetBytes) ETV
attr interpolationmode none
attr recordingmode vector(packetBytes)
attr source ieee80211Multicast(packetReceivedFromPeer)
attr title "packets received: multicast, packetBytes"
vector 31 SatelliteNetwork.userTerminal.wlan[0].mac.dcf packetReceivedFromPeerBroadcast:vector(packetBytes) ETV
attr interpolationmode none
attr recordingmode vector(packetBytes)
attr source ieee80211Broadcast(packetReceivedFromPeer)
attr title "packets received: broadcast, packetBytes"
vector 32 SatelliteNetwork.userTerminal.wlan[0].mac.dcf packetReceivedFromPeerWithRetry:vector(packetBytes) ETV
attr interpolationmode none
attr recordingmode vector(packetBytes)
attr source ieee80211Retry(packetReceivedFromPeer)
attr title "packets received: with retry, packetBytes"
vector 33 SatelliteNetwork.userTerminal.wlan[0].mac.dcf packetReceivedFromPeerWithoutRetry:vector(packetBytes) ETV
attr interpolationmode none
attr recordingmode vector(packetBytes)
attr source ieee80211NotRetry(packetReceivedFromPeer)
attr title "packets received: without retry, packetBytes"
vector 34 SatelliteNetwork.userTerminal.wlan[0].mac.dcf packetDrop:vector(packetBytes) ETV
attr interpolationmode none
attr recordingmode vector(packetBytes)
attr source packetDropped
attr title "packet drops, packetBytes"
vector 35 SatelliteNetwork.userTerminal.wlan[0].mac.dcf packetDropNotAddressedToUs:vector(packetBytes) ETV
attr interpolationmode none
attr recordingmode vector(packetBytes)
attr source packetDropReasonIsNotAddressedToUs(packetDropped)
attr title "packet drops: not addressed to us, packetBytes"
vector 36 SatelliteNetwork.userTerminal.wlan[0].mac.dcf packetDropQueueOverflow:vector(packetBytes) ETV
attr interpolationmode none
attr recordingmode vector(packetBytes)
attr source packetDropReasonIsQueueOverflow(packetDropped)
attr title "packet drops: queue overflow, packetBytes"
vector 37 SatelliteNetwork.userTerminal.wlan[0].mac.dcf packetDropRetryLimitReached:vector(packetBytes) ETV
attr interpolationmode none
attr recordingmode vector(packetBytes)
attr source packetDropReasonIsRetryLimitReached(packetDropped)
attr title "packet drops: retry limit reached, packetBytes"
vector 38 SatelliteNetwork.userTerminal.wlan[0].mac.dcf frameSequenceActive:vector ETV
attr autoWarmupFilter false
attr interpolationmode sample-hold
attr recordingmode vector
attr source warmup(count(frameSequenceStarted)-count(frameSequenceFinished))
attr title "frame sequence active"
vector 39 SatelliteNetwork.userTerminal.wlan[0].mac.dcf datarateSelected:vector ETV
attr interpolationmode none
attr recordingmode vector
attr title "datarates selected"
vector 40 SatelliteNetwork.userTerminal.wlan[0].mac.rx nav:vector ETV
attr interpolationmode linear
attr recordingmode vector
attr source navChanged
attr title "network allocation vector"
vector 41 SatelliteNetwork.userTerminal.wlan[0].mac packetSentToUpper:vector(packetBytes) ETV
attr interpolationmode none
attr recordingmode vector(packetBytes)
attr title "packets sent to upper layer, packetBytes"
vector 42 SatelliteNetwork.userTerminal.wlan[0].mac packetSentToLower:vector(packetBytes) ETV
attr interpolationmode none
attr recordingmode vector(packetBytes)
attr title "packets sent to lower layer, packetBytes"
vector 43 SatelliteNetwork.userTerminal.wlan[0].mac packetReceivedFromUpper:vector(packetBytes) ETV
attr interpolationmode none
attr recordingmode vector(packetBytes)
attr title "packets received from upper layer, packetBytes"
vector 44 SatelliteNetwork.userTerminal.wlan[0].mac packetReceivedFromLower:vector(packetBytes) ETV
attr interpolationmode none
attr recordingmode vector(packetBytes)
attr title "packets received from lower layer, packetBytes"
vector 45 SatelliteNetwork.userTerminal.wlan[0].mac packetDrop:vector(packetBytes) ETV
attr interpolationmode none
attr recordingmode vector(packetBytes)
attr source packetDropped
attr title "packet drops, packetBytes"
vector 46 SatelliteNetwork.userTerminal.wlan[0].mac packetDropIncorrectlyReceived:vector(packetBytes) ETV
attr interpolationmode none
attr recordingmode vector(packetBytes)
attr source packetDropReasonIsIncorrectlyReceived(packetDropped)
attr title "packet drops: incorrectly received, packetBytes"
vector 47 SatelliteNetwork.userTerminal.wlan[0].mac packetDropNotAddressedToUs:vector(packetBytes) ETV
attr interpolationmode none
attr recordingmode vector(packetBytes)
attr source packetDropReasonIsNotAddressedToUs(packetDropped)
attr title "packet drops: not addressed to us, packetBytes"
vector 48 SatelliteNetwork.userTerminal.wlan[0].mac packetDropQueueOverflow:vector(packetBytes) ETV
attr interpolationmode none
attr recordingmode vector(packetBytes)
attr source packetDropReasonIsQueueOverflow(packetDropped)
attr title "packet drops: queue overflow, packetBytes"
vector 49 SatelliteNetwork.userTerminal.wlan[0].mac packetDropRetryLimitReached:vector(packetBytes) ETV
attr interpolationmode none
attr recordingmode vector(packetBytes)
attr source packetDropReasonIsRetryLimitReached(packetDropped)
attr title "packet drops: retry limit reached, packetBytes"
vector 50 SatelliteNetwork.userTerminal.wlan[0].mac packetDropDuplicateDetected:vector(packetBytes) ETV
attr interpolationmode none
attr recordingmode vector(packetBytes)
attr source packetDropReasonIsDuplicateDetected(packetDropped)
attr title "packet drops: duplicate detected, packetBytes"
vector 51 SatelliteNetwork.userTerminal.wlan[0].mac packetDropOther:vector(packetBytes) ETV
attr interpolationmode none
attr recordingmode vector(packetBytes)
attr source packetDropReasonIsOther(packetDropped)
attr title "packet drops: other, packetBytes"
vector 52 SatelliteNetwork.userTerminal.wlan[0].radio radioMode:vector ETV
attr interpolationmode sample-hold
attr recordingmode vector
attr source radioModeChanged
attr title "Radio mode"
vector 53 SatelliteNetwork.userTerminal.wlan[0].radio receptionState:vector ETV
attr interpolationmode sample-hold
attr recordingmode vector
attr source receptionStateChanged
attr title "Radio reception state"
vector 54 SatelliteNetwork.userTerminal.wlan[0].radio transmissionState:vector ETV
attr interpolationmode sample-hold
attr recordingmode vector
attr source transmissionStateChanged
attr title "Radio transmission state"
vector 55 SatelliteNetwork.userTerminal.wlan[0].radio radioChannel:vector ETV
attr interpolationmode sample-hold
attr recordingmode vector
attr source radioChannelChanged
attr title "Radio channel"
vector 56 SatelliteNetwork.userTerminal.wlan[0] packetDropInterfaceDown:vector(packetBytes) ETV
attr interpolationmode none
attr recordingmode vector(packetBytes)
attr source packetDropReasonIsInterfaceDown(packetDropped)
attr title "packet drops: interface down, packetBytes"
vector 57 SatelliteNetwork.userTerminal.wlan[0] packetDropNoCarrier:vector(packetBytes) ETV
attr interpolationmode none
attr recordingmode vector(packetBytes)
attr source packetDropReasonIsNoCarrier(packetDropped)
attr title "packet drops: no carrier, packetBytes"
vector 58 SatelliteNetwork.userTerminal.ipv4.ip packetDropAddressResolutionFailed:vector(packetBytes) ETV
attr interpolationmode none
attr recordingmode vector(packetBytes)
attr source packetDropReasonIsAddressResolutionFailed(packetDropped)
attr title "packet drop: address resolution failed, packetBytes"
vector 59 SatelliteNetwork.userTerminal.ipv4.ip packetDropHopLimitReached:vector(packetBytes) ETV
attr interpolationmode none
attr recordingmode vector(packetBytes)
attr source packetDropReasonIsHopLimitReached(packetDropped)
attr title "packet drop: hop limit reached, packetBytes"
vector 60 SatelliteNetwork.userTerminal.ipv4.ip packetDropForwardingDisabled:vector(packetBytes) ETV
attr interpolationmode none
attr recordingmode vector(packetBytes)
attr source packetDropReasonIsForwardingDisabled(packetDropped)
attr title "packet drop: forwarding disabled, packetBytes"
vector 61 SatelliteNetwork.userTerminal.ipv4.ip packetDropNoInterfaceFound:vector(packetBytes) ETV
attr interpolationmode none
attr recordingmode vector(packetBytes)
attr source packetDropReasonIsNoInterfaceFound(packetDropped)
attr title "packet drop: no interface found, packetBytes"
vector 62 SatelliteNetwork.userTerminal.ipv4.ip packetDropNoRouteFound:vector(packetBytes) ETV
attr interpolationmode none
attr recordingmode vector(packetBytes)
attr source packetDropReasonIsNoRouteFound(packetDropped)
attr title "packet drop: no route found, packetBytes"
vector 63 SatelliteNetwork.userTerminal.ipv4.ip packetDropUndefined:vector(packetBytes) ETV
attr interpolationmode none
attr recordingmode vector(packetBytes)
attr source packetDropReasonIsUndefined(packetDropped)
attr title "packet drop: undefined, packetBytes"
vector 64 SatelliteNetwork.userTerminal.udp packetSent:vector(packetBytes) ETV
attr interpolationmode none
attr recordingmode vector(packetBytes)
attr source packetSent
attr title "packets sent, packetBytes"
vector 65 SatelliteNetwork.userTerminal.udp packetReceived:vector(packetBytes) ETV
attr interpolationmode none
attr recordingmode vector(packetBytes)
attr source packetReceived
attr title "packets received, packetBytes"
vector 66 SatelliteNetwork.userTerminal.udp passedUpPk:vector(count) ETV
attr interpolationmode none
attr recordingmode vector(count)
attr source packetSentToUpper
attr title "packets passed up, count"
vector 67 SatelliteNetwork.userTerminal.udp droppedPkWrongPort:vector(count) ETV
attr interpolationmode none
attr recordingmode vector(count)
attr source packetDropReasonIsNoPortFound(packetDropped)
attr title "packets dropped (wrong port), count"
vector 68 SatelliteNetwork.userTerminal.udp droppedPkBadChecksum:vector(count) ETV
attr interpolationmode none
attr recordingmode vector(count)
attr source packetDropReasonIsIncorrectlyReceived(packetDropped)
attr title "packets dropped (checksum error), count"
vector 69 SatelliteNetwork.userTerminal.app[0].source packetLengths:vector ETV
attr interpolationmode none
attr recordingmode vector
attr source packetLength(packetPushed)
attr title "packet lengths"
attr unit b
vector 70 SatelliteNetwork.userTerminal.app[0].source dataRate:vector ETV
attr interpolationmode linear
attr recordingmode vector
attr source throughput(packetPushed)
attr title "data rate"
attr unit bps
vector 71 SatelliteNetwork.userTerminal.app[0].sink droppedPacketLengths:vector ETV
attr interpolationmode none
attr recordingmode vector
attr source packetLength(packetDropped)
attr title "dropped packet lengths"
attr unit b
vector 72 SatelliteNetwork.userTerminal.app[0].sink droppedDataRate:vector ETV
attr interpolationmode linear
attr recordingmode vector
attr source throughput(packetDropped)
attr title "dropped data rate"
attr unit bps
vector 73 SatelliteNetwork.userTerminal.app[0].sink packetLengths:vector ETV
attr interpolationmode none
attr recordingmode vector
attr source packetLength(packetPushed)
attr title "packet lengths"
attr unit b
vector 74 SatelliteNetwork.userTerminal.app[0].sink dataRate:vector ETV
attr interpolationmode linear
attr recordingmode vector
attr source throughput(packetPushed)
attr title "data rate"
attr unit bps
vector 75 SatelliteNetwork.userTerminal.app[0].sink meanBitLifeTimePerPacket:vector ETV
attr interpolationmode none
attr recordingmode vector
attr source weightedMeanPerGroup(groupRegionsPerPacket(lifeTimePerRegion(packetPushed)))
attr title "mean bit life time per packet"
attr unit s
vector 76 SatelliteNetwork.userTerminal.app[0].sink packetJitter:vector ETV
attr interpolationmode none
attr recordingmode vector
attr source jitter(weightedMeanPerGroup(groupRegionsPerPacket(lifeTimePerRegion(packetPushed))))
attr title "packet jitter"
attr unit s
vector 77 SatelliteNetwork.userTerminal.app[0].sink packetDelayDifferenceToMean:vector ETV
attr interpolationmode none
attr recordingmode vector
attr source differenceToMean(weightedMeanPerGroup(groupRegionsPerPacket(lifeTimePerRegion(packetPushed))))
attr title "packet delay difference to mean"
attr unit s
vector 78 SatelliteNetwork.userTerminal.app[0].sink packetDelayVariation:vector ETV
attr recordingmode vector
attr source stddev(weightedMeanPerGroup(groupRegionsPerPacket(lifeTimePerRegion(packetPushed))))
attr title "packet delay variation"
attr unit s
vector 79 SatelliteNetwork.userTerminal.app[1].source packetLengths:vector ETV
attr interpolationmode none
attr recordingmode vector
attr source packetLength(packetPushed)
attr title "packet lengths"
attr unit b
vector 80 SatelliteNetwork.userTerminal.app[1].source dataRate:vector ETV
attr interpolationmode linear
attr recordingmode vector
attr source throughput(packetPushed)
attr title "data rate"
attr unit bps
vector 81 SatelliteNetwork.userTerminal.app[1].sink droppedPacketLengths:vector ETV
attr interpolationmode none
attr recordingmode vector
attr source packetLength(packetDropped)
attr title "dropped packet lengths"
attr unit b
vector 82 SatelliteNetwork.userTerminal.app[1].sink droppedDataRate:vector ETV
attr interpolationmode linear
attr recordingmode vector
attr source throughput(packetDropped)
attr title "dropped data rate"
attr unit bps
vector 83 SatelliteNetwork.userTerminal.app[1].sink packetLengths:vector ETV
attr interpolationmode none
attr recordingmode vector
attr source packetLength(packetPushed)
attr title "packet lengths"
attr unit b
vector 84 SatelliteNetwork.userTerminal.app[1].sink dataRate:vector ETV
attr interpolationmode linear
attr recordingmode vector
attr source throughput(packetPushed)
attr title "data rate"
attr unit bps
vector 85 SatelliteNetwork.userTerminal.app[1].sink meanBitLifeTimePerPacket:vector ETV
attr interpolationmode none
attr recordingmode vector
attr source weightedMeanPerGroup(groupRegionsPerPacket(lifeTimePerRegion(packetPushed)))
attr title "mean bit life time per packet"
attr unit s
vector 86 SatelliteNetwork.userTerminal.app[1].sink packetJitter:vector ETV
attr interpolationmode none
attr recordingmode vector
attr source jitter(weightedMeanPerGroup(groupRegionsPerPacket(lifeTimePerRegion(packetPushed))))
attr title "packet jitter"
attr unit s
vector 87 SatelliteNetwork.userTerminal.app[1].sink packetDelayDifferenceToMean:vector ETV
attr interpolationmode none
attr recordingmode vector
attr source differenceToMean(weightedMeanPerGroup(groupRegionsPerPacket(lifeTimePerRegion(packetPushed))))
attr title "packet delay difference to mean"
attr unit s
vector 88 SatelliteNetwork.userTerminal.app[1].sink packetDelayVariation:vector ETV
attr recordingmode vector
attr source stddev(weightedMeanPerGroup(groupRegionsPerPacket(lifeTimePerRegion(packetPushed))))
attr title "packet delay variation"
attr unit s
vector 89 SatelliteNetwork.userTerminal.app[1].io packetSent:vector(packetBytes) ETV
attr interpolationmode none
attr recordingmode vector(packetBytes)
attr source packetSent
attr title "packets sent, packetBytes"
vector 90 SatelliteNetwork.userTerminal.app[1].io packetReceived:vector(packetBytes) ETV
attr interpolationmode none
attr recordingmode vector(packetBytes)
attr source packetReceived
attr title "packets received, packetBytes"
vector 91 SatelliteNetwork.satellite1.lo[0].lo rcvdPkFromHl:vector(packetBytes) ETV
attr interpolationmode none
attr recordingmode vector(packetBytes)
attr source packetReceivedFromUpper
attr title "packets received from higher layer, packetBytes"
vector 92 SatelliteNetwork.satellite1.lo[0].lo passedUpPk:vector(packetBytes) ETV
attr interpolationmode none
attr recordingmode vector(packetBytes)
attr source packetSentToUpper
attr title "packets passed to higher layer, packetBytes"
vector 93 SatelliteNetwork.satellite1.lo[0] packetDropInterfaceDown:vector(packetBytes) ETV
attr interpolationmode none
attr recordingmode vector(packetBytes)
attr source packetDropReasonIsInterfaceDown(packetDropped)
attr title "packet drops: interface down, packetBytes"
vector 94 SatelliteNetwork.satellite1.lo[0] packetDropNoCarrier:vector(packetBytes) ETV
attr interpolationmode none
attr recordingmode vector(packetBytes)
attr source packetDropReasonIsNoCarrier(packetDropped)
attr title "packet drops: no carrier, packetBytes"
vector 95 SatelliteNetwork.satellite1.wlan[0].mac.dcf.channelAccess.pendingQueue queueLength:vector ETV
attr autoWarmupFilter false
attr interpolationmode sample-hold
attr recordingmode vector
attr source "warmup(atomic(constant0(packetPushEnded) + count(packetPushStarted) - count(packetPulled) - count(packetRemoved) - count(packetDropped)))"
attr title "queue length"
attr unit pk
vector 96 SatelliteNetwork.satellite1.wlan[0].mac.dcf.channelAccess.pendingQueue queueBitLength:vector ETV
attr autoWarmupFilter false
attr interpolationmode sample-hold
attr recordingmode vector
attr source "warmup(atomic(constant0(packetPushEnded) + sum(packetLength(packetPushStarted)) - sum(packetLength(packetPulled)) - sum(packetLength(packetRemoved)) - sum(packetLength(packetDropped))))"
attr title "queue bit length"
attr unit b
vector 97 SatelliteNetwork.satellite1.wlan[0].mac.dcf.channelAccess.pendingQueue queueingTime:vector ETV
attr interpolationmode none
attr recordingmode vector
attr source queueingTime(packetPulled)
attr title "queueing times"
attr unit s
vector 98 SatelliteNetwork.satellite1.wlan[0].mac.dcf.channelAccess.pendingQueue incomingPacketLengths:vector ETV
attr interpolationmode none
attr recordingmode vector
attr source packetLength(packetPushStarted)
attr title "incoming packet lengths"
attr unit b
vector 99 SatelliteNetwork.satellite1.wlan[0].mac.dcf.channelAccess.pendingQueue incomingDataRate:vector ETV
attr interpolationmode linear
attr recordingmode vector
attr source throughput(packetPushStarted)
attr title "incoming datarate"
attr unit bps
vector 100 SatelliteNetwork.satellite1.wlan[0].mac.dcf.channelAccess.pendingQueue outgoingPacketLengths:vector ETV
attr interpolationmode none
attr recordingmode vector
attr source packetLength(packetPulled)
attr title "outgoing packet lengths"
attr unit b
vector 101 SatelliteNetwork.satellite1.wlan[0].mac.dcf.channelAccess.pendingQueue outgoingDataRate:vector ETV
attr interpolationmode linear
attr recordingmode vector
attr source throughput(packetPulled)
attr title "outgoing datarate"
attr unit bps
vector 102 SatelliteNetwork.satellite1.wlan[0].mac.dcf.channelAccess.pendingQueue droppedPacketLengthsQueueOverflow:vector ETV
attr interpolationmode none
attr recordingmode vector
attr source packetLength(packetDropReasonIsQueueOverflow(packetDropped))
attr title "dropped packet lengths: queue overflow"
attr unit b
vector 103 SatelliteNetwork.satellite1.wlan[0].mac.dcf.channelAccess.pendingQueue flowQueueingTime:vector ETV
attr interpolationmode none
attr recordingmode vector
attr source queueingTime(demuxFlow(packetPulled))
attr title "flow queueing times"
attr unit s
vector 104 SatelliteNetwork.satellite1.wlan[0].mac.dcf.channelAccess.pendingQueue flowIncomingDataRate:vector ETV
attr interpolationmode linear
attr recordingmode vector
attr source throughput(flowPacketLength(demuxFlow(packetPushStarted)))
attr title "flow specific incoming data rate"
attr unit bps
vector 105 SatelliteNetwork.satellite1.wlan[0].mac.dcf.channelAccess.pendingQueue flowOutgoingDataRate:vector ETV
attr interpolationmode linear
attr recordingmode vector
attr source throughput(flowPacketLength(demuxFlow(packetPulled)))
attr title "flow specific outgoing data rate"
attr unit bps
vector 106 SatelliteNetwork.satellite1.wlan[0].mac.dcf.channelAccess.inProgressFrames queueingTime:vector ETV
attr interpolationmode none
attr recordingmode vector
attr source queueingTime(packetDequeued)
attr title "queueing times"
vector 107 SatelliteNetwork.satellite1.wlan[0].mac.dcf.channelAccess.inProgressFrames queueLength:vector ETV
attr autoWarmupFilter false
attr interpolationmode sample-hold
attr recordingmode vector
attr source "warmup(count(packetEnqueued) - count(packetDequeued))"
attr title "queue length"
vector 108 SatelliteNetwork.satellite1.wlan[0].mac.dcf.channelAccess.contention backoffPeriodGenerated:vector ETV
attr interpolationmode none
attr recordingmode vector
attr title "backoff periods"
vector 109 SatelliteNetwork.satellite1.wlan[0].mac.dcf.channelAccess.contention backoffActive:vector ETV
attr autoWarmupFilter false
attr interpolationmode sample-hold
attr recordingmode vector
attr source warmup(count(backoffStarted)-count(backoffStopped))
attr title "backoff active"
vector 110 SatelliteNetwork.satellite1.wlan[0].mac.dcf.channelAccess.contention stateChanged:vector ETV
attr enum IDLE,DEFER,IFS_AND_BACKOFF
attr interpolationmode none
attr recordingmode vector
attr title "contention state changed"
attr type enum
vector 111 SatelliteNetwork.satellite1.wlan[0].mac.dcf.recipientMacDataService packetDropDuplicateDetected:vector(packetBytes) ETV
attr interpolationmode none
attr recordingmode vector(packetBytes)
attr source packetDropReasonIsDuplicateDetected(packetDropped)
attr title "packet drops: duplicate detected, packetBytes"
vector 112 SatelliteNetwork.satellite1.wlan[0].mac.dcf.recoveryProcedure contentionWindowChanged:vector ETV
attr interpolationmode sample-hold
attr recordingmode vector
attr title "contention window"
vector 113 SatelliteNetwork.satellite1.wlan[0].mac.dcf packetSentToPeer:vector(packetBytes) ETV
attr interpolationmode none
attr recordingmode vector(packetBytes)
attr title "packets sent, packetBytes"
vector 114 SatelliteNetwork.satellite1.wlan[0].mac.dcf packetSentToPeerUnicast:vector(packetBytes) ETV
attr interpolationmode none
attr recordingmode vector(packetBytes)
attr source ieee80211Unicast(packetSentToPeer)
attr title "packets sent: unicast, packetBytes"
vector 115 SatelliteNetwork.satellite1.wlan[0].mac.dcf packetSentToPeerMulticast:vector(packetBytes) ETV
attr interpolationmode none
attr recordingmode vector(packetBytes)
attr source ieee80211Multicast(packetSentToPeer)
attr title "packets sent: multicast, packetBytes"
vector 116 SatelliteNetwork.satellite1.wlan[0].mac.dcf packetSentToPeerBroadcast:vector(packetBytes) ETV
attr interpolationmode none
attr recordingmode vector(packetBytes)
attr source ieee80211Broadcast(packetSentToPeer)
attr title "packets sent: broadcast , packetBytes"
vector 117 SatelliteNetwork.satellite1.wlan[0].mac.dcf packetSentToPeerWithRetry:vector(packetBytes) ETV
attr interpolationmode none
attr recordingmode vector(packetBytes)
attr source ieee80211Retry(packetSentToPeer)
attr title "packets sent: with retry, packetBytes"
vector 118 SatelliteNetwork.satellite1.wlan[0].mac.dcf packetSentToPeerWithoutRetry:vector(packetBytes) ETV
attr interpolationmode none
attr recordingmode vector(packetBytes)
attr source ieee80211NotRetry(packetSentToPeer)
attr title "packets sent: without retry, packetBytes"
vector 119 SatelliteNetwork.satellite1.wlan[0].mac.dcf packetReceivedFromPeer:vector(packetBytes) ETV
attr interpolationmode none
attr recordingmode vector(packetBytes)
attr title "packets received, packetBytes"
vector 120 SatelliteNetwork.satellite1.wlan[0].mac.dcf packetReceivedFromPeerUnicast:vector(packetBytes) ETV
attr interpolationmode none
attr recordingmode vector(packetBytes)
attr source ieee80211Unicast(packetReceivedFromPeer)
attr title "packets received: unicast, packetBytes"
vector 121 SatelliteNetwork.satellite1.wlan[0].mac.dcf packetReceivedFromPeerMulticast:vector(packetBytes) ETV
attr interpolationmode none
attr recordingmode vector(packetBytes)
attr source ieee80211Multicast(packetReceivedFromPeer)
attr title "packets received: multicast, packetBytes"
vector 122 SatelliteNetwork.satellite1.wlan[0].mac.dcf packetReceivedFromPeerBroadcast:vector(packetBytes) ETV
attr interpolationmode none
attr recordingmode vector(packetBytes)
attr source ieee80211Broadcast(packetReceivedFromPeer)
attr title "packets received: broadcast, packetBytes"
vector 123 SatelliteNetwork.satellite1.wlan[0].mac.dcf packetReceivedFromPeerWithRetry:vector(packetBytes) ETV
attr interpolationmode none
attr recordingmode vector(packetBytes)
attr source ieee80211Retry(packetReceivedFromPeer)
attr title "packets received: with retry, packetBytes"
vector 124 SatelliteNetwork.satellite1.wlan[0].mac.dcf packetReceivedFromPeerWithoutRetry:vector(packetBytes) ETV
attr interpolationmode none
attr recordingmode vector(packetBytes)
attr source ieee80211NotRetry(packetReceivedFromPeer)
attr title "packets received: without retry, packetBytes"
vector 125 SatelliteNetwork.satellite1.wlan[0].mac.dcf packetDrop:vector(packetBytes) ETV
attr interpolationmode none
attr recordingmode vector(packetBytes)
attr source packetDropped
attr title "packet drops, packetBytes"
vector 126 SatelliteNetwork.satellite1.wlan[0].mac.dcf packetDropNotAddressedToUs:vector(packetBytes) ETV
attr interpolationmode none
attr recordingmode vector(packetBytes)
attr source packetDropReasonIsNotAddressedToUs(packetDropped)
attr title "packet drops: not addressed to us, packetBytes"
vector 127 SatelliteNetwork.satellite1.wlan[0].mac.dcf packetDropQueueOverflow:vector(packetBytes) ETV
attr interpolationmode none
attr recordingmode vector(packetBytes)
attr source packetDropReasonIsQueueOverflow(packetDropped)
attr title "packet drops: queue overflow, packetBytes"
vector 128 SatelliteNetwork.satellite1.wlan[0].mac.dcf packetDropRetryLimitReached:vector(packetBytes) ETV
attr interpolationmode none
attr recordingmode vector(packetBytes)
attr source packetDropReasonIsRetryLimitReached(packetDropped)
attr title "packet drops: retry limit reached, packetBytes"
vector 129 SatelliteNetwork.satellite1.wlan[0].mac.dcf frameSequenceActive:vector ETV
attr autoWarmupFilter false
attr interpolationmode sample-hold
attr recordingmode vector
attr source warmup(count(frameSequenceStarted)-count(frameSequenceFinished))
attr title "frame sequence active"
vector 130 SatelliteNetwork.satellite1.wlan[0].mac.dcf datarateSelected:vector ETV
attr interpolationmode none
attr recordingmode vector
attr title "datarates selected"
vector 131 SatelliteNetwork.satellite1.wlan[0].mac.rx nav:vector ETV
attr interpolationmode linear
attr recordingmode vector
attr source navChanged
attr title "network allocation vector"
vector 132 SatelliteNetwork.satellite1.wlan[0].mac packetSentToUpper:vector(packetBytes) ETV
attr interpolationmode none
attr recordingmode vector(packetBytes)
attr title "packets sent to upper layer, packetBytes"
vector 133 SatelliteNetwork.satellite1.wlan[0].mac packetSentToLower:vector(packetBytes) ETV
attr interpolationmode none
attr recordingmode vector(packetBytes)
attr title "packets sent to lower layer, packetBytes"
vector 134 SatelliteNetwork.satellite1.wlan[0].mac packetReceivedFromUpper:vector(packetBytes) ETV
attr interpolationmode none
attr recordingmode vector(packetBytes)
attr title "packets received from upper layer, packetBytes"
vector 135 SatelliteNetwork.satellite1.wlan[0].mac packetReceivedFromLower:vector(packetBytes) ETV
attr interpolationmode none
attr recordingmode vector(packetBytes)
attr title "packets received from lower layer, packetBytes"
vector 136 SatelliteNetwork.satellite1.wlan[0].mac packetDrop:vector(packetBytes) ETV
attr interpolationmode none
attr recordingmode vector(packetBytes)
attr source packetDropped
attr title "packet drops, packetBytes"
vector 137 SatelliteNetwork.satellite1.wlan[0].mac packetDropIncorrectlyReceived:vector(packetBytes) ETV
attr interpolationmode none
attr recordingmode vector(packetBytes)
attr source packetDropReasonIsIncorrectlyReceived(packetDropped)
attr title "packet drops: incorrectly received, packetBytes"
vector 138 SatelliteNetwork.satellite1.wlan[0].mac packetDropNotAddressedToUs:vector(packetBytes) ETV
attr interpolationmode none
attr recordingmode vector(packetBytes)
attr source packetDropReasonIsNotAddressedToUs(packetDropped)
attr title "packet drops: not addressed to us, packetBytes"
vector 139 SatelliteNetwork.satellite1.wlan[0].mac packetDropQueueOverflow:vector(packetBytes) ETV
attr interpolationmode none
attr recordingmode vector(packetBytes)
attr source packetDropReasonIsQueueOverflow(packetDropped)
attr title "packet drops: queue overflow, packetBytes"
vector 140 SatelliteNetwork.satellite1.wlan[0].mac packetDropRetryLimitReached:vector(packetBytes) ETV
attr interpolationmode none
attr recordingmode vector(packetBytes)
attr source packetDropReasonIsRetryLimitReached(packetDropped)
attr title "packet drops: retry limit reached, packetBytes"
vector 141 SatelliteNetwork.satellite1.wlan[0].mac packetDropDuplicateDetected:vector(packetBytes) ETV
attr interpolationmode none
attr recordingmode vector(packetBytes)
attr source packetDropReasonIsDuplicateDetected(packetDropped)
attr title "packet drops: duplicate detected, packetBytes"
vector 142 SatelliteNetwork.satellite1.wlan[0].mac packetDropOther:vector(packetBytes) ETV
attr interpolationmode none
attr recordingmode vector(packetBytes)
attr source packetDropReasonIsOther(packetDropped)
attr title "packet drops: other, packetBytes"
vector 143 SatelliteNetwork.satellite1.wlan[0].radio radioMode:vector ETV
attr interpolationmode sample-hold
attr recordingmode vector
attr source radioModeChanged
attr title "Radio mode"
vector 144 SatelliteNetwork.satellite1.wlan[0].radio receptionState:vector ETV
attr interpolationmode sample-hold
attr recordingmode vector
attr source receptionStateChanged
attr title "Radio reception state"
vector 145 SatelliteNetwork.satellite1.wlan[0].radio transmissionState:vector ETV
attr interpolationmode sample-hold
attr recordingmode vector
attr source transmissionStateChanged
attr title "Radio transmission state"
vector 146 SatelliteNetwork.satellite1.wlan[0].radio radioChannel:vector ETV
attr interpolationmode sample-hold
attr recordingmode vector
attr source radioChannelChanged
attr title "Radio channel"
vector 147 SatelliteNetwork.satellite1.wlan[0] packetDropInterfaceDown:vector(packetBytes) ETV
attr interpolationmode none
attr recordingmode vector(packetBytes)
attr source packetDropReasonIsInterfaceDown(packetDropped)
attr title "packet drops: interface down, packetBytes"
vector 148 SatelliteNetwork.satellite1.wlan[0] packetDropNoCarrier:vector(packetBytes) ETV
attr interpolationmode none
attr recordingmode vector(packetBytes)
attr source packetDropReasonIsNoCarrier(packetDropped)
attr title "packet drops: no carrier, packetBytes"
vector 149 SatelliteNetwork.satellite1.ipv4.ip packetDropAddressResolutionFailed:vector(packetBytes) ETV
attr interpolationmode none
attr recordingmode vector(packetBytes)
attr source packetDropReasonIsAddressResolutionFailed(packetDropped)
attr title "packet drop: address resolution failed, packetBytes"
vector 150 SatelliteNetwork.satellite1.ipv4.ip packetDropHopLimitReached:vector(packetBytes) ETV
attr interpolationmode none
attr recordingmode vector(packetBytes)
attr source packetDropReasonIsHopLimitReached(packetDropped)
attr title "packet drop: hop limit reached, packetBytes"
vector 151 SatelliteNetwork.satellite1.ipv4.ip packetDropForwardingDisabled:vector(packetBytes) ETV
attr interpolationmode none
attr recordingmode vector(packetBytes)
attr source packetDropReasonIsForwardingDisabled(packetDropped)
attr title "packet drop: forwarding disabled, packetBytes"
vector 152 SatelliteNetwork.satellite1.ipv4.ip packetDropNoInterfaceFound:vector(packetBytes) ETV
attr interpolationmode none
attr recordingmode vector(packetBytes)
attr source packetDropReasonIsNoInterfaceFound(packetDropped)
attr title "packet drop: no interface found, packetBytes"
vector 153 SatelliteNetwork.satellite1.ipv4.ip packetDropNoRouteFound:vector(packetBytes) ETV
attr interpolationmode none
attr recordingmode vector(packetBytes)
attr source packetDropReasonIsNoRouteFound(packetDropped)
attr title "packet drop: no route found, packetBytes"
vector 154 SatelliteNetwork.satellite1.ipv4.ip packetDropUndefined:vector(packetBytes) ETV
attr interpolationmode none
attr recordingmode vector(packetBytes)
attr source packetDropReasonIsUndefined(packetDropped)
attr title "packet drop: undefined, packetBytes"
vector 155 SatelliteNetwork.satellite1.udp packetSent:vector(packetBytes) ETV
attr interpolationmode none
attr recordingmode vector(packetBytes)
attr source packetSent
attr title "packets sent, packetBytes"
vector 156 SatelliteNetwork.satellite1.udp packetReceived:vector(packetBytes) ETV
attr interpolationmode none
attr recordingmode vector(packetBytes)
attr source packetReceived
attr title "packets received, packetBytes"
vector 157 SatelliteNetwork.satellite1.udp passedUpPk:vector(count) ETV
attr interpolationmode none
attr recordingmode vector(count)
attr source packetSentToUpper
attr title "packets passed up, count"
vector 158 SatelliteNetwork.satellite1.udp droppedPkWrongPort:vector(count) ETV
attr interpolationmode none
attr recordingmode vector(count)
attr source packetDropReasonIsNoPortFound(packetDropped)
attr title "packets dropped (wrong port), count"
vector 159 SatelliteNetwork.satellite1.udp droppedPkBadChecksum:vector(count) ETV
attr interpolationmode none
attr recordingmode vector(count)
attr source packetDropReasonIsIncorrectlyReceived(packetDropped)
attr title "packets dropped (checksum error), count"
vector 160 SatelliteNetwork.satellite1.app[1].source.provider[0] packetLengths:vector ETV
attr interpolationmode none
attr recordingmode vector
attr source packetLength(packetPulled)
attr title "packet lengths"
attr unit b
vector 161 SatelliteNetwork.satellite1.app[1].source.provider[0] dataRate:vector ETV
attr interpolationmode linear
attr recordingmode vector
attr source throughput(packetPulled)
attr title "data rate"
attr unit bps
vector 162 SatelliteNetwork.satellite1.app[1].source.provider[1] packetLengths:vector ETV
attr interpolationmode none
attr recordingmode vector
attr source packetLength(packetPulled)
attr title "packet lengths"
attr unit b
vector 163 SatelliteNetwork.satellite1.app[1].source.provider[1] dataRate:vector ETV
attr interpolationmode linear
attr recordingmode vector
attr source throughput(packetPulled)
attr title "data rate"
attr unit bps
vector 164 SatelliteNetwork.satellite1.app[1].source.server[0] incomingPacketLengths:vector ETV
attr interpolationmode none
attr recordingmode vector
attr source packetLength(packetPulled)
attr title "incoming packet lengths"
attr unit b
vector 165 SatelliteNetwork.satellite1.app[1].source.server[0] incomingDataRate:vector ETV
attr interpolationmode linear
attr recordingmode vector
attr source throughput(packetPulled)
attr title "incoming datarate"
attr unit bps
vector 166 SatelliteNetwork.satellite1.app[1].source.server[0] outgoingPacketLengths:vector ETV
attr interpolationmode none
attr recordingmode vector
attr source packetLength(packetPushed)
attr title "outgoing packet lengths"
attr unit b
vector 167 SatelliteNetwork.satellite1.app[1].source.server[0] outgoingDataRate:vector ETV
attr interpolationmode linear
attr recordingmode vector
attr source throughput(packetPushed)
attr title "outgoing datarate"
attr unit bps
vector 168 SatelliteNetwork.satellite1.app[1].source.server[0] numTokens:vector ETV
attr interpolationmode sample-hold
attr recordingmode vector
attr source "sum(tokensAdded) - sum(tokensRemoved)"
attr title "number of tokens"
attr unit tk
vector 169 SatelliteNetwork.satellite1.app[1].source.server[1] incomingPacketLengths:vector ETV
attr interpolationmode none
attr recordingmode vector
attr source packetLength(packetPulled)
attr title "incoming packet lengths"
attr unit b
vector 170 SatelliteNetwork.satellite1.app[1].source.server[1] incomingDataRate:vector ETV
attr interpolationmode linear
attr recordingmode vector
attr source throughput(packetPulled)
attr title "incoming datarate"
attr unit bps
vector 171 SatelliteNetwork.satellite1.app[1].source.server[1] outgoingPacketLengths:vector ETV
attr interpolationmode none
attr recordingmode vector
attr source packetLength(packetPushed)
attr title "outgoing packet lengths"
attr unit b
vector 172 SatelliteNetwork.satellite1.app[1].source.server[1] outgoingDataRate:vector ETV
attr interpolationmode linear
attr recordingmode vector
attr source throughput(packetPushed)
attr title "outgoing datarate"
attr unit bps
vector 173 SatelliteNetwork.satellite1.app[1].source.server[1] numTokens:vector ETV
attr interpolationmode sample-hold
attr recordingmode vector
attr source "sum(tokensAdded) - sum(tokensRemoved)"
attr title "number of tokens"
attr unit tk
vector 174 SatelliteNetwork.satellite1.app[1].source.multiplexer packetLengths:vector ETV
attr interpolationmode none
attr recordingmode vector
attr source "packetLength(merge(packetPushed, packetPulled))"
attr title "packet lengths"
attr unit b
vector 175 SatelliteNetwork.satellite1.app[1].source.multiplexer dataRate:vector ETV
attr interpolationmode linear
attr recordingmode vector
attr source "throughput(merge(packetPushed, packetPulled))"
attr title "data rate"
attr unit bps
vector 176 SatelliteNetwork.satellite1.app[1].source.tokenGenerator numTokensCreated:vector ETV
attr interpolationmode none
attr recordingmode vector
attr source tokensCreated
attr title "number of created tokens"
attr unit tk
vector 177 SatelliteNetwork.satellite1.app[1].sink.queue queueLength:vector ETV
attr autoWarmupFilter false
attr interpolationmode sample-hold
attr recordingmode vector
attr source "warmup(atomic(constant0(packetPushEnded) + count(packetPushStarted) - count(packetPulled) - count(packetRemoved) - count(packetDropped)))"
attr title "queue length"
attr unit pk
vector 178 SatelliteNetwork.satellite1.app[1].sink.queue queueBitLength:vector ETV
attr autoWarmupFilter false
attr interpolationmode sample-hold
attr recordingmode vector
attr source "warmup(atomic(constant0(packetPushEnded) + sum(packetLength(packetPushStarted)) - sum(packetLength(packetPulled)) - sum(packetLength(packetRemoved)) - sum(packetLength(packetDropped))))"
attr title "queue bit length"
attr unit b
vector 179 SatelliteNetwork.satellite1.app[1].sink.queue queueingTime:vector ETV
attr interpolationmode none
attr recordingmode vector
attr source queueingTime(packetPulled)
attr title "queueing times"
attr unit s
vector 180 SatelliteNetwork.satellite1.app[1].sink.queue incomingPacketLengths:vector ETV
attr interpolationmode none
attr recordingmode vector
attr source packetLength(packetPushStarted)
attr title "incoming packet lengths"
attr unit b
vector 181 SatelliteNetwork.satellite1.app[1].sink.queue incomingDataRate:vector ETV
attr interpolationmode linear
attr recordingmode vector
attr source throughput(packetPushStarted)
attr title "incoming datarate"
attr unit bps
vector 182 SatelliteNetwork.satellite1.app[1].sink.queue outgoingPacketLengths:vector ETV
attr interpolationmode none
attr recordingmode vector
attr source packetLength(packetPulled)
attr title "outgoing packet lengths"
attr unit b
vector 183 SatelliteNetwork.satellite1.app[1].sink.queue outgoingDataRate:vector ETV
attr interpolationmode linear
attr recordingmode vector
attr source throughput(packetPulled)
attr title "outgoing datarate"
attr unit bps
vector 184 SatelliteNetwork.satellite1.app[1].sink.queue droppedPacketLengthsQueueOverflow:vector ETV
attr interpolationmode none
attr recordingmode vector
attr source packetLength(packetDropReasonIsQueueOverflow(packetDropped))
attr title "dropped packet lengths: queue overflow"
attr unit b
vector 185 SatelliteNetwork.satellite1.app[1].sink.queue flowQueueingTime:vector ETV
attr interpolationmode none
attr recordingmode vector
attr source queueingTime(demuxFlow(packetPulled))
attr title "flow queueing times"
attr unit s
vector 186 SatelliteNetwork.satellite1.app[1].sink.queue flowIncomingDataRate:vector ETV
attr interpolationmode linear
attr recordingmode vector
attr source throughput(flowPacketLength(demuxFlow(packetPushStarted)))
attr title "flow specific incoming data rate"
attr unit bps
vector 187 SatelliteNetwork.satellite1.app[1].sink.queue flowOutgoingDataRate:vector ETV
attr interpolationmode linear
attr recordingmode vector
attr source throughput(flowPacketLength(demuxFlow(packetPulled)))
attr title "flow specific outgoing data rate"
attr unit bps
vector 188 SatelliteNetwork.satellite1.app[1].sink.server incomingPacketLengths:vector ETV
attr interpolationmode none
attr recordingmode vector
attr source packetLength(packetPulled)
attr title "incoming packet lengths"
attr unit b
vector 189 SatelliteNetwork.satellite1.app[1].sink.server incomingDataRate:vector ETV
attr interpolationmode linear
attr recordingmode vector
attr source throughput(packetPulled)
attr title "incoming datarate"
attr unit bps
vector 190 SatelliteNetwork.satellite1.app[1].sink.server outgoingPacketLengths:vector ETV
attr interpolationmode none
attr recordingmode vector
attr source packetLength(packetPushed)
attr title "outgoing packet lengths"
attr unit b
vector 191 SatelliteNetwork.satellite1.app[1].sink.server outgoingDataRate:vector ETV
attr interpolationmode linear
attr recordingmode vector
attr source throughput(packetPushed)
attr title "outgoing datarate"
attr unit bps
vector 192 SatelliteNetwork.satellite1.app[1].sink.server numTokens:vector ETV
attr interpolationmode sample-hold
attr recordingmode vector
attr source "sum(tokensAdded) - sum(tokensRemoved)"
attr title "number of tokens"
attr unit tk
vector 193 SatelliteNetwork.satellite1.app[1].sink.classifier packetLengths:vector ETV
attr interpolationmode none
attr recordingmode vector
attr source packetLength(packetPushed)
attr title "packet lengths"
attr unit b
vector 194 SatelliteNetwork.satellite1.app[1].sink.classifier dataRate:vector ETV
attr interpolationmode linear
attr recordingmode vector
attr source throughput(packetPushed)
attr title "data rate"
attr unit bps
vector 195 SatelliteNetwork.satellite1.app[1].sink.tokenGenerator[0] numTokensCreated:vector ETV
attr interpolationmode none
attr recordingmode vector
attr source tokensCreated
attr title "number of created tokens"
attr unit tk
vector 196 SatelliteNetwork.satellite1.app[1].sink.tokenGenerator[1] numTokensCreated:vector ETV
attr interpolationmode none
attr recordingmode vector
attr source tokensCreated
attr title "number of created tokens"
attr unit tk
vector 197 SatelliteNetwork.satellite1.app[1].io packetSent:vector(packetBytes) ETV
attr interpolationmode none
attr recordingmode vector(packetBytes)
attr source packetSent
attr title "packets sent, packetBytes"
vector 198 SatelliteNetwork.satellite1.app[1].io packetReceived:vector(packetBytes) ETV
attr interpolationmode none
attr recordingmode vector(packetBytes)
attr source packetReceived
attr title "packets received, packetBytes"
vector 199 SatelliteNetwork.satellite1.app[2].source packetLengths:vector ETV
attr interpolationmode none
attr recordingmode vector
attr source packetLength(packetPushed)
attr title "packet lengths"
attr unit b
vector 200 SatelliteNetwork.satellite1.app[2].source dataRate:vector ETV
attr interpolationmode linear
attr recordingmode vector
attr source throughput(packetPushed)
attr title "data rate"
attr unit bps
vector 201 SatelliteNetwork.satellite1.app[2].sink droppedPacketLengths:vector ETV
attr interpolationmode none
attr recordingmode vector
attr source packetLength(packetDropped)
attr title "dropped packet lengths"
attr unit b
vector 202 SatelliteNetwork.satellite1.app[2].sink droppedDataRate:vector ETV
attr interpolationmode linear
attr recordingmode vector
attr source throughput(packetDropped)
attr title "dropped data rate"
attr unit bps
vector 203 SatelliteNetwork.satellite1.app[2].sink packetLengths:vector ETV
attr interpolationmode none
attr recordingmode vector
attr source packetLength(packetPushed)
attr title "packet lengths"
attr unit b
vector 204 SatelliteNetwork.satellite1.app[2].sink dataRate:vector ETV
attr interpolationmode linear
attr recordingmode vector
attr source throughput(packetPushed)
attr title "data rate"
attr unit bps
vector 205 SatelliteNetwork.satellite1.app[2].sink meanBitLifeTimePerPacket:vector ETV
attr interpolationmode none
attr recordingmode vector
attr source weightedMeanPerGroup(groupRegionsPerPacket(lifeTimePerRegion(packetPushed)))
attr title "mean bit life time per packet"
attr unit s
vector 206 SatelliteNetwork.satellite1.app[2].sink packetJitter:vector ETV
attr interpolationmode none
attr recordingmode vector
attr source jitter(weightedMeanPerGroup(groupRegionsPerPacket(lifeTimePerRegion(packetPushed))))
attr title "packet jitter"
attr unit s
vector 207 SatelliteNetwork.satellite1.app[2].sink packetDelayDifferenceToMean:vector ETV
attr interpolationmode none
attr recordingmode vector
attr source differenceToMean(weightedMeanPerGroup(groupRegionsPerPacket(lifeTimePerRegion(packetPushed))))
attr title "packet delay difference to mean"
attr unit s
vector 208 SatelliteNetwork.satellite1.app[2].sink packetDelayVariation:vector ETV
attr recordingmode vector
attr source stddev(weightedMeanPerGroup(groupRegionsPerPacket(lifeTimePerRegion(packetPushed))))
attr title "packet delay variation"
attr unit s
vector 209 SatelliteNetwork.satellite1 coordX:vector ETV
attr interpolationmode linear
attr recordingmode vector
attr source xCoord(mobilityPos(mobilityStateChanged))
attr title "coord X"
vector 210 SatelliteNetwork.satellite1 coordY:vector ETV
attr interpolationmode linear
attr recordingmode vector
attr source yCoord(mobilityPos(mobilityStateChanged))
attr title "coord Y"
vector 211 SatelliteNetwork.satellite1 coordZ:vector ETV
attr interpolationmode linear
attr recordingmode vector
attr source zCoord(mobilityPos(mobilityStateChanged))
attr title "coord Z"
vector 212 SatelliteNetwork.satellite2.lo[0].lo rcvdPkFromHl:vector(packetBytes) ETV
attr interpolationmode none
attr recordingmode vector(packetBytes)
attr source packetReceivedFromUpper
attr title "packets received from higher layer, packetBytes"
vector 213 SatelliteNetwork.satellite2.lo[0].lo passedUpPk:vector(packetBytes) ETV
attr interpolationmode none
attr recordingmode vector(packetBytes)
attr source packetSentToUpper
attr title "packets passed to higher layer, packetBytes"
vector 214 SatelliteNetwork.satellite2.lo[0] packetDropInterfaceDown:vector(packetBytes) ETV
attr interpolationmode none
attr recordingmode vector(packetBytes)
attr source packetDropReasonIsInterfaceDown(packetDropped)
attr title "packet drops: interface down, packetBytes"
vector 215 SatelliteNetwork.satellite2.lo[0] packetDropNoCarrier:vector(packetBytes) ETV
attr interpolationmode none
attr recordingmode vector(packetBytes)
attr source packetDropReasonIsNoCarrier(packetDropped)
attr title "packet drops: no carrier, packetBytes"
vector 216 SatelliteNetwork.satellite2.wlan[0].mac.dcf.channelAccess.pendingQueue queueLength:vector ETV
attr autoWarmupFilter false
attr interpolationmode sample-hold
attr recordingmode vector
attr source "warmup(atomic(constant0(packetPushEnded) + count(packetPushStarted) - count(packetPulled) - count(packetRemoved) - count(packetDropped)))"
attr title "queue length"
attr unit pk
vector 217 SatelliteNetwork.satellite2.wlan[0].mac.dcf.channelAccess.pendingQueue queueBitLength:vector ETV
attr autoWarmupFilter false
attr interpolationmode sample-hold
attr recordingmode vector
attr source "warmup(atomic(constant0(packetPushEnded) + sum(packetLength(packetPushStarted)) - sum(packetLength(packetPulled)) - sum(packetLength(packetRemoved)) - sum(packetLength(packetDropped))))"
attr title "queue bit length"
attr unit b
vector 218 SatelliteNetwork.satellite2.wlan[0].mac.dcf.channelAccess.pendingQueue queueingTime:vector ETV
attr interpolationmode none
attr recordingmode vector
attr source queueingTime(packetPulled)
attr title "queueing times"
attr unit s
vector 219 SatelliteNetwork.satellite2.wlan[0].mac.dcf.channelAccess.pendingQueue incomingPacketLengths:vector ETV
attr interpolationmode none
attr recordingmode vector
attr source packetLength(packetPushStarted)
attr title "incoming packet lengths"
attr unit b
vector 220 SatelliteNetwork.satellite2.wlan[0].mac.dcf.channelAccess.pendingQueue incomingDataRate:vector ETV
attr interpolationmode linear
attr recordingmode vector
attr source throughput(packetPushStarted)
attr title "incoming datarate"
attr unit bps
vector 221 SatelliteNetwork.satellite2.wlan[0].mac.dcf.channelAccess.pendingQueue outgoingPacketLengths:vector ETV
attr interpolationmode none
attr recordingmode vector
attr source packetLength(packetPulled)
attr title "outgoing packet lengths"
attr unit b
vector 222 SatelliteNetwork.satellite2.wlan[0].mac.dcf.channelAccess.pendingQueue outgoingDataRate:vector ETV
attr interpolationmode linear
attr recordingmode vector
attr source throughput(packetPulled)
attr title "outgoing datarate"
attr unit bps
vector 223 SatelliteNetwork.satellite2.wlan[0].mac.dcf.channelAccess.pendingQueue droppedPacketLengthsQueueOverflow:vector ETV
attr interpolationmode none
attr recordingmode vector
attr source packetLength(packetDropReasonIsQueueOverflow(packetDropped))
attr title "dropped packet lengths: queue overflow"
attr unit b
vector 224 SatelliteNetwork.satellite2.wlan[0].mac.dcf.channelAccess.pendingQueue flowQueueingTime:vector ETV
attr interpolationmode none
attr recordingmode vector
attr source queueingTime(demuxFlow(packetPulled))
attr title "flow queueing times"
attr unit s
vector 225 SatelliteNetwork.satellite2.wlan[0].mac.dcf.channelAccess.pendingQueue flowIncomingDataRate:vector ETV
attr interpolationmode linear
attr recordingmode vector
attr source throughput(flowPacketLength(demuxFlow(packetPushStarted)))
attr title "flow specific incoming data rate"
attr unit bps
vector 226 SatelliteNetwork.satellite2.wlan[0].mac.dcf.channelAccess.pendingQueue flowOutgoingDataRate:vector ETV
attr interpolationmode linear
attr recordingmode vector
attr source throughput(flowPacketLength(demuxFlow(packetPulled)))
attr title "flow specific outgoing data rate"
attr unit bps
vector 227 SatelliteNetwork.satellite2.wlan[0].mac.dcf.channelAccess.inProgressFrames queueingTime:vector ETV
attr interpolationmode none
attr recordingmode vector
attr source queueingTime(packetDequeued)
attr title "queueing times"
vector 228 SatelliteNetwork.satellite2.wlan[0].mac.dcf.channelAccess.inProgressFrames queueLength:vector ETV
attr autoWarmupFilter false
attr interpolationmode sample-hold
attr recordingmode vector
attr source "warmup(count(packetEnqueued) - count(packetDequeued))"
attr title "queue length"
vector 229 SatelliteNetwork.satellite2.wlan[0].mac.dcf.channelAccess.contention backoffPeriodGenerated:vector ETV
attr interpolationmode none
attr recordingmode vector
attr title "backoff periods"
vector 230 SatelliteNetwork.satellite2.wlan[0].mac.dcf.channelAccess.contention backoffActive:vector ETV
attr autoWarmupFilter false
attr interpolationmode sample-hold
attr recordingmode vector
attr source warmup(count(backoffStarted)-count(backoffStopped))
attr title "backoff active"
vector 231 SatelliteNetwork.satellite2.wlan[0].mac.dcf.channelAccess.contention stateChanged:vector ETV
attr enum IDLE,DEFER,IFS_AND_BACKOFF
attr interpolationmode none
attr recordingmode vector
attr title "contention state changed"
attr type enum
vector 232 SatelliteNetwork.satellite2.wlan[0].mac.dcf.recipientMacDataService packetDropDuplicateDetected:vector(packetBytes) ETV
attr interpolationmode none
attr recordingmode vector(packetBytes)
attr source packetDropReasonIsDuplicateDetected(packetDropped)
attr title "packet drops: duplicate detected, packetBytes"
vector 233 SatelliteNetwork.satellite2.wlan[0].mac.dcf.recoveryProcedure contentionWindowChanged:vector ETV
attr interpolationmode sample-hold
attr recordingmode vector
attr title "contention window"
vector 234 SatelliteNetwork.satellite2.wlan[0].mac.dcf packetSentToPeer:vector(packetBytes) ETV
attr interpolationmode none
attr recordingmode vector(packetBytes)
attr title "packets sent, packetBytes"
vector 235 SatelliteNetwork.satellite2.wlan[0].mac.dcf packetSentToPeerUnicast:vector(packetBytes) ETV
attr interpolationmode none
attr recordingmode vector(packetBytes)
attr source ieee80211Unicast(packetSentToPeer)
attr title "packets sent: unicast, packetBytes"
vector 236 SatelliteNetwork.satellite2.wlan[0].mac.dcf packetSentToPeerMulticast:vector(packetBytes) ETV
attr interpolationmode none
attr recordingmode vector(packetBytes)
attr source ieee80211Multicast(packetSentToPeer)
attr title "packets sent: multicast, packetBytes"
vector 237 SatelliteNetwork.satellite2.wlan[0].mac.dcf packetSentToPeerBroadcast:vector(packetBytes) ETV
attr interpolationmode none
attr recordingmode vector(packetBytes)
attr source ieee80211Broadcast(packetSentToPeer)
attr title "packets sent: broadcast , packetBytes"
vector 238 SatelliteNetwork.satellite2.wlan[0].mac.dcf packetSentToPeerWithRetry:vector(packetBytes) ETV
attr interpolationmode none
attr recordingmode vector(packetBytes)
attr source ieee80211Retry(packetSentToPeer)
attr title "packets sent: with retry, packetBytes"
vector 239 SatelliteNetwork.satellite2.wlan[0].mac.dcf packetSentToPeerWithoutRetry:vector(packetBytes) ETV
attr interpolationmode none
attr recordingmode vector(packetBytes)
attr source ieee80211NotRetry(packetSentToPeer)
attr title "packets sent: without retry, packetBytes"
vector 240 SatelliteNetwork.satellite2.wlan[0].mac.dcf packetReceivedFromPeer:vector(packetBytes) ETV
attr interpolationmode none
attr recordingmode vector(packetBytes)
attr title "packets received, packetBytes"
vector 241 SatelliteNetwork.satellite2.wlan[0].mac.dcf packetReceivedFromPeerUnicast:vector(packetBytes) ETV
attr interpolationmode none
attr recordingmode vector(packetBytes)
attr source ieee80211Unicast(packetReceivedFromPeer)
attr title "packets received: unicast, packetBytes"
vector 242 SatelliteNetwork.satellite2.wlan[0].mac.dcf packetReceivedFromPeerMulticast:vector(packetBytes) ETV
attr interpolationmode none
attr recordingmode vector(packetBytes)
attr source ieee80211Multicast(packetReceivedFromPeer)
attr title "packets received: multicast, packetBytes"
vector 243 SatelliteNetwork.satellite2.wlan[0].mac.dcf packetReceivedFromPeerBroadcast:vector(packetBytes) ETV
attr interpolationmode none
attr recordingmode vector(packetBytes)
attr source ieee80211Broadcast(packetReceivedFromPeer)
attr title "packets received: broadcast, packetBytes"
vector 244 SatelliteNetwork.satellite2.wlan[0].mac.dcf packetReceivedFromPeerWithRetry:vector(packetBytes) ETV
attr interpolationmode none
attr recordingmode vector(packetBytes)
attr source ieee80211Retry(packetReceivedFromPeer)
attr title "packets received: with retry, packetBytes"
vector 245 SatelliteNetwork.satellite2.wlan[0].mac.dcf packetReceivedFromPeerWithoutRetry:vector(packetBytes) ETV
attr interpolationmode none
attr recordingmode vector(packetBytes)
attr source ieee80211NotRetry(packetReceivedFromPeer)
attr title "packets received: without retry, packetBytes"
vector 246 SatelliteNetwork.satellite2.wlan[0].mac.dcf packetDrop:vector(packetBytes) ETV
attr interpolationmode none
attr recordingmode vector(packetBytes)
attr source packetDropped
attr title "packet drops, packetBytes"
vector 247 SatelliteNetwork.satellite2.wlan[0].mac.dcf packetDropNotAddressedToUs:vector(packetBytes) ETV
attr interpolationmode none
attr recordingmode vector(packetBytes)
attr source packetDropReasonIsNotAddressedToUs(packetDropped)
attr title "packet drops: not addressed to us, packetBytes"
vector 248 SatelliteNetwork.satellite2.wlan[0].mac.dcf packetDropQueueOverflow:vector(packetBytes) ETV
attr interpolationmode none
attr recordingmode vector(packetBytes)
attr source packetDropReasonIsQueueOverflow(packetDropped)
attr title "packet drops: queue overflow, packetBytes"
vector 249 SatelliteNetwork.satellite2.wlan[0].mac.dcf packetDropRetryLimitReached:vector(packetBytes) ETV
attr interpolationmode none
attr recordingmode vector(packetBytes)
attr source packetDropReasonIsRetryLimitReached(packetDropped)
attr title "packet drops: retry limit reached, packetBytes"
vector 250 SatelliteNetwork.satellite2.wlan[0].mac.dcf frameSequenceActive:vector ETV
attr autoWarmupFilter false
attr interpolationmode sample-hold
attr recordingmode vector
attr source warmup(count(frameSequenceStarted)-count(frameSequenceFinished))
attr title "frame sequence active"
vector 251 SatelliteNetwork.satellite2.wlan[0].mac.dcf datarateSelected:vector ETV
attr interpolationmode none
attr recordingmode vector
attr title "datarates selected"
vector 252 SatelliteNetwork.satellite2.wlan[0].mac.rx nav:vector ETV
attr interpolationmode linear
attr recordingmode vector
attr source navChanged
attr title "network allocation vector"
vector 253 SatelliteNetwork.satellite2.wlan[0].mac packetSentToUpper:vector(packetBytes) ETV
attr interpolationmode none
attr recordingmode vector(packetBytes)
attr title "packets sent to upper layer, packetBytes"
vector 254 SatelliteNetwork.satellite2.wlan[0].mac packetSentToLower:vector(packetBytes) ETV
attr interpolationmode none
attr recordingmode vector(packetBytes)
attr title "packets sent to lower layer, packetBytes"
vector 255 SatelliteNetwork.satellite2.wlan[0].mac packetReceivedFromUpper:vector(packetBytes) ETV
attr interpolationmode none
attr recordingmode vector(packetBytes)
attr title "packets received from upper layer, packetBytes"
vector 256 SatelliteNetwork.satellite2.wlan[0].mac packetReceivedFromLower:vector(packetBytes) ETV
attr interpolationmode none
attr recordingmode vector(packetBytes)
attr title "packets received from lower layer, packetBytes"
vector 257 SatelliteNetwork.satellite2.wlan[0].mac packetDrop:vector(packetBytes) ETV
attr interpolationmode none
attr recordingmode vector(packetBytes)
attr source packetDropped
attr title "packet drops, packetBytes"
vector 258 SatelliteNetwork.satellite2.wlan[0].mac packetDropIncorrectlyReceived:vector(packetBytes) ETV
attr interpolationmode none
attr recordingmode vector(packetBytes)
attr source packetDropReasonIsIncorrectlyReceived(packetDropped)
attr title "packet drops: incorrectly received, packetBytes"
vector 259 SatelliteNetwork.satellite2.wlan[0].mac packetDropNotAddressedToUs:vector(packetBytes) ETV
attr interpolationmode none
attr recordingmode vector(packetBytes)
attr source packetDropReasonIsNotAddressedToUs(packetDropped)
attr title "packet drops: not addressed to us, packetBytes"
vector 260 SatelliteNetwork.satellite2.wlan[0].mac packetDropQueueOverflow:vector(packetBytes) ETV
attr interpolationmode none
attr recordingmode vector(packetBytes)
attr source packetDropReasonIsQueueOverflow(packetDropped)
attr title "packet drops: queue overflow, packetBytes"
vector 261 SatelliteNetwork.satellite2.wlan[0].mac packetDropRetryLimitReached:vector(packetBytes) ETV
attr interpolationmode none
attr recordingmode vector(packetBytes)
attr source packetDropReasonIsRetryLimitReached(packetDropped)
attr title "packet drops: retry limit reached, packetBytes"
vector 262 SatelliteNetwork.satellite2.wlan[0].mac packetDropDuplicateDetected:vector(packetBytes) ETV
attr interpolationmode none
attr recordingmode vector(packetBytes)
attr source packetDropReasonIsDuplicateDetected(packetDropped)
attr title "packet drops: duplicate detected, packetBytes"
vector 263 SatelliteNetwork.satellite2.wlan[0].mac packetDropOther:vector(packetBytes) ETV
attr interpolationmode none
attr recordingmode vector(packetBytes)
attr source packetDropReasonIsOther(packetDropped)
attr title "packet drops: other, packetBytes"
vector 264 SatelliteNetwork.satellite2.wlan[0].radio radioMode:vector ETV
attr interpolationmode sample-hold
attr recordingmode vector
attr source radioModeChanged
attr title "Radio mode"
vector 265 SatelliteNetwork.satellite2.wlan[0].radio receptionState:vector ETV
attr interpolationmode sample-hold
attr recordingmode vector
attr source receptionStateChanged
attr title "Radio reception state"
vector 266 SatelliteNetwork.satellite2.wlan[0].radio transmissionState:vector ETV
attr interpolationmode sample-hold
attr recordingmode vector
attr source transmissionStateChanged
attr title "Radio transmission state"
vector 267 SatelliteNetwork.satellite2.wlan[0].radio radioChannel:vector ETV
attr interpolationmode sample-hold
attr recordingmode vector
attr source radioChannelChanged
attr title "Radio channel"
vector 268 SatelliteNetwork.satellite2.wlan[0] packetDropInterfaceDown:vector(packetBytes) ETV
attr interpolationmode none
attr recordingmode vector(packetBytes)
attr source packetDropReasonIsInterfaceDown(packetDropped)
attr title "packet drops: interface down, packetBytes"
vector 269 SatelliteNetwork.satellite2.wlan[0] packetDropNoCarrier:vector(packetBytes) ETV
attr interpolationmode none
attr recordingmode vector(packetBytes)
attr source packetDropReasonIsNoCarrier(packetDropped)
attr title "packet drops: no carrier, packetBytes"
vector 270 SatelliteNetwork.satellite2.ipv4.ip packetDropAddressResolutionFailed:vector(packetBytes) ETV
attr interpolationmode none
attr recordingmode vector(packetBytes)
attr source packetDropReasonIsAddressResolutionFailed(packetDropped)
attr title "packet drop: address resolution failed, packetBytes"
vector 271 SatelliteNetwork.satellite2.ipv4.ip packetDropHopLimitReached:vector(packetBytes) ETV
attr interpolationmode none
attr recordingmode vector(packetBytes)
attr source packetDropReasonIsHopLimitReached(packetDropped)
attr title "packet drop: hop limit reached, packetBytes"
vector 272 SatelliteNetwork.satellite2.ipv4.ip packetDropForwardingDisabled:vector(packetBytes) ETV
attr interpolationmode none
attr recordingmode vector(packetBytes)
attr source packetDropReasonIsForwardingDisabled(packetDropped)
attr title "packet drop: forwarding disabled, packetBytes"
vector 273 SatelliteNetwork.satellite2.ipv4.ip packetDropNoInterfaceFound:vector(packetBytes) ETV
attr interpolationmode none
attr recordingmode vector(packetBytes)
attr source packetDropReasonIsNoInterfaceFound(packetDropped)
attr title "packet drop: no interface found, packetBytes"
vector 274 SatelliteNetwork.satellite2.ipv4.ip packetDropNoRouteFound:vector(packetBytes) ETV
attr interpolationmode none
attr recordingmode vector(packetBytes)
attr source packetDropReasonIsNoRouteFound(packetDropped)
attr title "packet drop: no route found, packetBytes"
vector 275 SatelliteNetwork.satellite2.ipv4.ip packetDropUndefined:vector(packetBytes) ETV
attr interpolationmode none
attr recordingmode vector(packetBytes)
attr source packetDropReasonIsUndefined(packetDropped)
attr title "packet drop: undefined, packetBytes"
vector 276 SatelliteNetwork.satellite2.udp packetSent:vector(packetBytes) ETV
attr interpolationmode none
attr recordingmode vector(packetBytes)
attr source packetSent
attr title "packets sent, packetBytes"
vector 277 SatelliteNetwork.satellite2.udp packetReceived:vector(packetBytes) ETV
attr interpolationmode none
attr recordingmode vector(packetBytes)
attr source packetReceived
attr title "packets received, packetBytes"
vector 278 SatelliteNetwork.satellite2.udp passedUpPk:vector(count) ETV
attr interpolationmode none
attr recordingmode vector(count)
attr source packetSentToUpper
attr title "packets passed up, count"
vector 279 SatelliteNetwork.satellite2.udp droppedPkWrongPort:vector(count) ETV
attr interpolationmode none
attr recordingmode vector(count)
attr source packetDropReasonIsNoPortFound(packetDropped)
attr title "packets dropped (wrong port), count"
vector 280 SatelliteNetwork.satellite2.udp droppedPkBadChecksum:vector(count) ETV
attr interpolationmode none
attr recordingmode vector(count)
attr source packetDropReasonIsIncorrectlyReceived(packetDropped)
attr title "packets dropped (checksum error), count"
vector 281 SatelliteNetwork.satellite2.app[1].source.provider[0] packetLengths:vector ETV
attr interpolationmode none
attr recordingmode vector
attr source packetLength(packetPulled)
attr title "packet lengths"
attr unit b
vector 282 SatelliteNetwork.satellite2.app[1].source.provider[0] dataRate:vector ETV
attr interpolationmode linear
attr recordingmode vector
attr source throughput(packetPulled)
attr title "data rate"
attr unit bps
vector 283 SatelliteNetwork.satellite2.app[1].source.provider[1] packetLengths:vector ETV
attr interpolationmode none
attr recordingmode vector
attr source packetLength(packetPulled)
attr title "packet lengths"
attr unit b
vector 284 SatelliteNetwork.satellite2.app[1].source.provider[1] dataRate:vector ETV
attr interpolationmode linear
attr recordingmode vector
attr source throughput(packetPulled)
attr title "data rate"
[...]
attr interpolationmode sample-hold
attr recordingmode vector
vector 667 SatelliteNetwork.groundStation.tcp.conn-11 unacked:vector ETV
attr interpolationmode sample-hold
attr recordingmode vector
vector 668 SatelliteNetwork.groundStation.tcp.conn-11 dupAcks:vector ETV
attr interpolationmode sample-hold
attr recordingmode vector
vector 669 SatelliteNetwork.groundStation.tcp.conn-11 pipe:vector ETV
attr interpolationmode sample-hold
attr recordingmode vector
vector 670 SatelliteNetwork.groundStation.tcp.conn-11 sndSacks:vector ETV
attr interpolationmode sample-hold
attr recordingmode vector
vector 671 SatelliteNetwork.groundStation.tcp.conn-11 rcvSacks:vector ETV
attr interpolationmode sample-hold
attr recordingmode vector
vector 672 SatelliteNetwork.groundStation.tcp.conn-11 rcvOooSeg:vector ETV
attr interpolationmode sample-hold
attr recordingmode vector
vector 673 SatelliteNetwork.groundStation.tcp.conn-11 rcvNASeg:vector ETV
attr interpolationmode sample-hold
attr recordingmode vector
vector 674 SatelliteNetwork.groundStation.tcp.conn-11 sackedBytes:vector ETV
attr interpolationmode sample-hold
attr recordingmode vector
vector 675 SatelliteNetwork.groundStation.tcp.conn-11 tcpRcvQueueBytes:vector ETV
attr interpolationmode sample-hold
attr recordingmode vector
vector 676 SatelliteNetwork.groundStation.tcp.conn-11 tcpRcvQueueDrops:vector ETV
attr interpolationmode sample-hold
attr recordingmode vector
vector 677 SatelliteNetwork.groundStation.tcp.conn-11 tcpRcvPayloadBytes:vector ETV
attr interpolationmode sample-hold
attr recordingmode vector
vector 678 SatelliteNetwork.groundStation.tcp.conn-11 cwnd:vector ETV
attr interpolationmode sample-hold
attr recordingmode vector
vector 679 SatelliteNetwork.groundStation.tcp.conn-11 ssthresh:vector ETV
attr interpolationmode sample-hold
attr recordingmode vector
vector 680 SatelliteNetwork.groundStation.tcp.conn-11 rtt:vector ETV
attr interpolationmode sample-hold
attr recordingmode vector
vector 681 SatelliteNetwork.groundStation.tcp.conn-11 srtt:vector ETV
attr interpolationmode sample-hold
attr recordingmode vector
vector 682 SatelliteNetwork.groundStation.tcp.conn-11 rttvar:vector ETV
attr interpolationmode sample-hold
attr recordingmode vector
vector 683 SatelliteNetwork.groundStation.tcp.conn-11 rto:vector ETV
attr interpolationmode sample-hold
attr recordingmode vector
vector 684 SatelliteNetwork.groundStation.tcp.conn-11 numRtos:vector ETV
attr interpolationmode sample-hold
attr recordingmode vector
vector 685 SatelliteNetwork.groundStation.tcp.conn-11 load:vector ETV
attr interpolationmode sample-hold
attr recordingmode vector
vector 686 SatelliteNetwork.groundStation.tcp.conn-11 calcLoad:vector ETV
attr interpolationmode sample-hold
attr recordingmode vector
vector 687 SatelliteNetwork.groundStation.tcp.conn-11 markingProb:vector ETV
attr interpolationmode sample-hold
attr recordingmode vector
vector 688 SatelliteNetwork.satellite1.tcp.conn-12 state:vector ETV
attr interpolationmode sample-hold
attr recordingmode vector
vector 689 SatelliteNetwork.satellite1.tcp.conn-12 sndWnd:vector ETV
attr interpolationmode sample-hold
attr recordingmode vector
vector 690 SatelliteNetwork.satellite1.tcp.conn-12 rcvWnd:vector ETV
attr interpolationmode sample-hold
attr recordingmode vector
vector 691 SatelliteNetwork.satellite1.tcp.conn-12 rcvAdv:vector ETV
attr interpolationmode sample-hold
attr recordingmode vector
vector 692 SatelliteNetwork.satellite1.tcp.conn-12 sndNxt:vector ETV
attr interpolationmode sample-hold
attr recordingmode vector
vector 693 SatelliteNetwork.satellite1.tcp.conn-12 sndAck:vector ETV
attr interpolationmode sample-hold
attr recordingmode vector
vector 694 SatelliteNetwork.satellite1.tcp.conn-12 rcvSeq:vector ETV
attr interpolationmode sample-hold
attr recordingmode vector
vector 695 SatelliteNetwork.satellite1.tcp.conn-12 rcvAck:vector ETV
attr interpolationmode sample-hold
attr recordingmode vector
vector 696 SatelliteNetwork.satellite1.tcp.conn-12 unacked:vector ETV
attr interpolationmode sample-hold
attr recordingmode vector
vector 697 SatelliteNetwork.satellite1.tcp.conn-12 dupAcks:vector ETV
attr interpolationmode sample-hold
attr recordingmode vector
vector 698 SatelliteNetwork.satellite1.tcp.conn-12 pipe:vector ETV
attr interpolationmode sample-hold
attr recordingmode vector
vector 699 SatelliteNetwork.satellite1.tcp.conn-12 sndSacks:vector ETV
attr interpolationmode sample-hold
attr recordingmode vector
vector 700 SatelliteNetwork.satellite1.tcp.conn-12 rcvSacks:vector ETV
attr interpolationmode sample-hold
attr recordingmode vector
vector 701 SatelliteNetwork.satellite1.tcp.conn-12 rcvOooSeg:vector ETV
attr interpolationmode sample-hold
attr recordingmode vector
vector 702 SatelliteNetwork.satellite1.tcp.conn-12 rcvNASeg:vector ETV
attr interpolationmode sample-hold
attr recordingmode vector
vector 703 SatelliteNetwork.satellite1.tcp.conn-12 sackedBytes:vector ETV
attr interpolationmode sample-hold
attr recordingmode vector
vector 704 SatelliteNetwork.satellite1.tcp.conn-12 tcpRcvQueueBytes:vector ETV
attr interpolationmode sample-hold
attr recordingmode vector
vector 705 SatelliteNetwork.satellite1.tcp.conn-12 tcpRcvQueueDrops:vector ETV
attr interpolationmode sample-hold
attr recordingmode vector
vector 706 SatelliteNetwork.satellite1.tcp.conn-12 tcpRcvPayloadBytes:vector ETV
attr interpolationmode sample-hold
attr recordingmode vector
vector 707 SatelliteNetwork.satellite1.tcp.conn-12 cwnd:vector ETV
attr interpolationmode sample-hold
attr recordingmode vector
vector 708 SatelliteNetwork.satellite1.tcp.conn-12 ssthresh:vector ETV
attr interpolationmode sample-hold
attr recordingmode vector
vector 709 SatelliteNetwork.satellite1.tcp.conn-12 rtt:vector ETV
attr interpolationmode sample-hold
attr recordingmode vector
vector 710 SatelliteNetwork.satellite1.tcp.conn-12 srtt:vector ETV
attr interpolationmode sample-hold
attr recordingmode vector
vector 711 SatelliteNetwork.satellite1.tcp.conn-12 rttvar:vector ETV
attr interpolationmode sample-hold
attr recordingmode vector
vector 712 SatelliteNetwork.satellite1.tcp.conn-12 rto:vector ETV
attr interpolationmode sample-hold
attr recordingmode vector
vector 713 SatelliteNetwork.satellite1.tcp.conn-12 numRtos:vector ETV
attr interpolationmode sample-hold
attr recordingmode vector
vector 714 SatelliteNetwork.satellite1.tcp.conn-12 load:vector ETV
attr interpolationmode sample-hold
attr recordingmode vector
vector 715 SatelliteNetwork.satellite1.tcp.conn-12 calcLoad:vector ETV
attr interpolationmode sample-hold
attr recordingmode vector
vector 716 SatelliteNetwork.satellite1.tcp.conn-12 markingProb:vector ETV
attr interpolationmode sample-hold
attr recordingmode vector
4	160703 113 0 154 0 0.000959815679 9 0 2 4 6
5	160816 121 0 154 0 0.000959815679 9 0 3640 7280 22659200
6	160937 74 154 154 0.000959815679 0.000959815679 2 0.000959815679 0.000959815679 0.001919631358 1.8424922753085e-06
7	161011 25 31 32 0 0 2 640 3000 3640 9409600
9	161036 53 154 154 0.000959815679 0.000959815679 2 640 3000 3640 9409600
15	161089 75 211 307 0.001548891073 0.002835966539 2 0.000589075394 0.00187615086 0.002465226254 3.866951869295e-06
16	161164 120 0 307 0 0.002835966539 6 0 2 4 6
17	161284 114 31 271 0 0.002415891073 5 5 26 70 1240
18	161398 499 0 272 0 0.002634891073 22 0 1 10 10
19	161897 1528 0 314 0 0.002945966544 64 0 2 50 90
21	163425 142 0 307 0 0.002835966539 6 31 127 346 26950
22	163567 133 167 279 0.001013815679 0.002788891073 5 80 375 1285 434675
23	163700 133 167 279 0.001013815679 0.002788891073 5 80 375 1285 434675
26	163833 80 183 279 0.001501815679 0.002788891073 3 80 375 830 287650
27	163913 53 167 235 0.001013815679 0.001852891073 2 80 375 455 147025
28	163966 52 211 307 0.001548891073 0.002835966539 2 14 14 28 392
29	164018 52 211 307 0.001548891073 0.002835966539 2 14 14 28 392
33	164070 52 211 307 0.001548891073 0.002835966539 2 14 14 28 392
34	164122 76 55 145 0.000125537657 0.000609815679 3 14 80 174 12996
35	164198 76 55 145 0.000125537657 0.000609815679 3 14 80 174 12996
38	164274 270 0 307 0 0.002835966539 12 0 1 5 5
39	164544 160 154 273 0.000959815679 0.002634891073 5 24000000 24000000 120000000 2.88e+15
40	164704 562 55 298 0.000125537657 0.002832891073 21 0 4.4e-05 0.000308 1.3552e-08
42	165266 133 154 273 0.000959815679 0.002634891073 5 80 375 1285 434675
43	165399 25 31 32 0 0 2 52 347 399 123113
44	165424 128 55 307 0.000125537657 0.002835966539 5 14 80 202 13388
45	165552 76 55 145 0.000125537657 0.000609815679 3 14 80 174 12996
47	165628 76 55 145 0.000125537657 0.000609815679 3 14 80 174 12996
52	165704 280 0 280 0 0.002788891073 13 0 3 27 69
53	165984 531 0 314 0 0.002945966544 22 0 3 29 65
54	166515 500 155 280 0.000959815679 0.002788891073 20 0 2 20 30
55	167015 10 0 0 0 0 1 0 0 0 0
64	167025 13 18 18 0 0 1 319 319 319 101761
66	167038 10 0 0 0 0 1 0 0 0 0
67	167048 10 0 0 0 0 1 0 0 0 0
68	167058 10 0 0 0 0 1 0 0 0 0
69	167068 13 0 0 0 0 1 3672 3672 3672 13483584
79	167081 13 0 0 0 0 1 2488 2488 2488 6190144
89	167094 12 2 2 0 0 1 311 311 311 96721
95	167106 203 0 309 0 0.002944428804 12 0 3 10 20
96	167309 219 0 309 0 0.002944428804 12 0 5120 16000 62296064
97	167528 97 36 309 0.00007 0.002944428804 3 7e-05 0.002380150796 0.003891226225 7.746716203767e-06
98	167625 95 33 291 0 0.002790428804 4 640 3744 5760 15378432
100	167720 77 36 309 0.00007 0.002944428804 3 640 3744 5024 14836736
106	167797 38 71 71 0.000171075303 0.000171075303 1 0.000101075303 0.000101075303 0.000101075303 1.0216216876542e-08
107	167835 117 0 309 0 0.002944428804 6 0 2 4 6
108	167952 39 33 129 0 0.000564278008 2 1 23 24 530
109	167991 572 0 308 0 0.002944428804 24 0 1 11 11
110	168563 1618 0 310 0 0.002944428804 66 0 2 64 108
112	170181 12 0 0 0 0 1 31 31 31 961
113	170193 129 42 315 0.000124 0.003130428804 5 14 468 590 226012
114	170322 129 42 315 0.000124 0.003130428804 5 14 468 590 226012
118	170451 129 42 315 0.000124 0.003130428804 5 14 468 590 226012
119	170580 108 71 285 0.000171075303 0.002790428804 4 14 375 549 153621
120	170688 108 71 285 0.000171075303 0.002790428804 4 14 375 549 153621
123	170796 55 189 285 0.001503353375 0.002790428804 2 80 375 455 147025
124	170851 53 71 122 0.000171075303 0.000564278008 2 14 80 94 6596
125	170904 53 92 108 0.000375139695 0.000420278011 2 14 80 94 6596
126	170957 53 92 108 0.000375139695 0.000420278011 2 14 80 94 6596
129	171010 91 0 309 0 0.002944428804 5 0 1 2 2
130	171101 157 36 309 0.00007 0.002944428804 5 24000000 24000000 120000000 2.88e+15
131	171258 203 42 315 0.000124 0.003130428804 8 0 4.4e-05 0.000132 5.808e-09
132	171461 82 122 285 0.000564278008 0.002790428804 3 52 347 451 125817
133	171543 128 36 309 0.00007 0.002944428804 5 14 468 590 226012
134	171671 95 33 291 0 0.002790428804 4 52 440 608 203104
135	171766 243 71 285 0.000171075303 0.002790428804 9 14 375 1178 313642
136	172009 135 92 267 0.000375139695 0.002362428791 5 14 375 629 160021
137	172144 82 166 267 0.000995353273 0.002362428791 3 80 375 535 153425
138	172226 53 92 108 0.000375139695 0.000420278011 2 14 80 94 6596
143	172279 278 0 316 0 0.003130428804 13 0 3 27 69
144	172557 771 0 316 0 0.003130428804 31 0 3 46 104
145	173328 490 37 316 0.00007 0.003130428804 20 0 2 20 30
146	173818 11 0 0 0 0 1 0 0 0 0
156	173829 28 288 288 0.002790428804 0.002790428804 1 319 319 319 101761
157	173857 11 0 0 0 0 1 0 0 0 0
158	173868 37 0 288 0 0.002790428804 2 0 1 1 1
159	173905 11 0 0 0 0 1 0 0 0 0
168	173916 22 0 0 0 0 2 0 0 0 0
173	173938 22 0 0 0 0 2 0 0 0 0
177	173960 55 0 0 0 0 5 0 0 0 0
178	174015 55 0 0 0 0 5 0 0 0 0
192	174070 22 0 0 0 0 2 0 0 0 0
199	174092 14 0 0 0 0 1 3136 3136 3136 9834496
209	174106 4199 0 316 0 0.003130428804 108 749.99994773555 750 80999.999136537 60749998.704805
210	178305 4172 0 316 0 0.003130428804 108 300 300.12521713762 32403.263285425 9721958.2302938
211	182477 2707 0 316 0 0.003130428804 108 0 0 0 0
216	185184 92 0 73 0 0.000320139003 7 0 1 1 1
217	185276 94 0 73 0 0.000320139003 7 0 640 640 409600
218	185370 38 73 73 0.000320139003 0.000320139003 1 0.000320139003 0.000320139003 0.000320139003 1.0248898124183e-07
219	185408 14 34 34 0 0 1 640 640 640 409600
221	185422 27 73 73 0.000320139003 0.000320139003 1 640 640 640 409600
227	185449 38 105 105 0.000419341738 0.000419341738 1 9.9202735e-05 9.9202735e-05 9.9202735e-05 9.8411826314802e-09
228	185487 73 0 105 0 0.000419341738 4 0 1 1 1
229	185560 12 34 34 0 0 1 6 6 6 36
230	185572 159 0 72 0 0.000320139003 8 0 1 3 3
231	185731 1638 0 318 0 0.003131429496 66 0 2 16 28
233	187369 12 0 0 0 0 1 31 31 31 961
234	187381 26 79 79 0.000374139003 0.000374139003 1 80 80 80 6400
235	187407 26 79 79 0.000374139003 0.000374139003 1 80 80 80 6400
239	187433 26 79 79 0.000374139003 0.000374139003 1 80 80 80 6400
240	187459 27 105 105 0.000419341738 0.000419341738 1 14 14 14 196
241	187486 27 105 105 0.000419341738 0.000419341738 1 14 14 14 196
245	187513 27 105 105 0.000419341738 0.000419341738 1 14 14 14 196
246	187540 241 45 318 0.000125000692 0.003131429496 9 14 468 1139 379633
247	187781 241 45 318 0.000125000692 0.003131429496 9 14 468 1139 379633
250	188022 73 0 105 0 0.000419341738 4 0 1 1 1
251	188095 32 73 73 0.000320139003 0.000320139003 1 24000000 24000000 24000000 5.76e+14
252	188127 472 45 318 0.000125000692 0.003131429496 17 0 4.4e-05 0.000264 1.1616e-08
254	188599 26 73 73 0.000320139003 0.000320139003 1 80 80 80 6400
255	188625 13 34 34 0 0 1 52 52 52 2704
256	188638 349 45 318 0.000125000692 0.003131429496 13 14 468 1688 533254
257	188987 322 45 318 0.000125000692 0.003131429496 12 14 468 1674 533058
258	189309 81 163 261 0.000994417057 0.002361492251 3 80 375 535 153425
259	189390 241 45 318 0.000125000692 0.003131429496 9 14 468 1139 379633
264	189631 83 0 80 0 0.000374139003 5 0 3 7 17
265	189714 804 0 317 0 0.003131429496 32 0 3 60 144
266	190518 100 74 80 0.000320139003 0.000374139003 4 0 2 4 6
267	190618 11 0 0 0 0 1 0 0 0 0
278	190629 11 0 0 0 0 1 0 0 0 0
279	190640 11 0 0 0 0 1 0 0 0 0
280	190651 11 0 0 0 0 1 0 0 0 0
289	190662 22 0 0 0 0 2 0 0 0 0
294	190684 22 0 0 0 0 2 0 0 0 0
298	190706 55 0 0 0 0 5 0 0 0 0
299	190761 55 0 0 0 0 5 0 0 0 0
313	190816 22 0 0 0 0 2 0 0 0 0
320	190838 14 0 0 0 0 1 1504 1504 1504 2262016
330	190852 4242 0 317 0 0.003131429496 109 450 450.00005229787 49050.000893156 22072500.80384
331	195094 4219 0 317 0 0.003131429496 109 299.87474283472 300 32696.642469318 9807985.7495375
332	199313 2736 0 317 0 0.003131429496 109 0 0 0 0
337	202049 157 0 110 0 0.000508740368 9 0 2 4 6
338	202206 164 0 110 0 0.000508740368 9 0 1280 2560 2457600
339	202370 72 110 110 0.000508740368 0.000508740368 2 0.000134 0.000383202716 0.000517202716 1.6480032154978e-07
340	202442 54 53 90 0.000125537652 0.000374740368 2 640 640 1280 819200
342	202496 56 110 110 0.000508740368 0.000508740368 2 640 640 1280 819200
348	202552 39 143 143 0.000609815646 0.000609815646 1 0.000101075278 0.000101075278 0.000101075278 1.0216211822777e-08
349	202591 100 0 143 0 0.000609815646 5 0 2 4 6
350	202691 133 53 270 0.000125537652 0.002415890986 5 7 72 142 6630
351	202824 562 0 319 0 0.003131966373 23 0 1 11 11
352	203386 1618 0 319 0 0.003131966373 64 0 2 54 96
354	205004 95 0 270 0 0.002415890986 4 31 255 476 86084
355	205099 161 64 256 0.000169537652 0.002360890986 6 14 80 348 25992
356	205260 161 64 256 0.000169537652 0.002360890986 6 14 80 348 25992
359	205421 54 226 256 0.001712890986 0.002360890986 2 80 80 160 12800
360	205475 107 64 160 0.000169537652 0.000993815646 4 14 80 188 13192
361	205582 107 47 320 0.000125537652 0.003131966373 4 14 468 642 232020
362	205689 107 47 320 0.000125537652 0.003131966373 4 14 468 642 232020
366	205796 107 47 320 0.000125537652 0.003131966373 4 14 468 642 232020
367	205903 54 209 305 0.001548890986 0.002835966377 2 14 14 28 392
368	205957 54 209 305 0.001548890986 0.002835966377 2 14 14 28 392
371	206011 230 0 270 0 0.002415890986 10 0 1 4 4
372	206241 229 47 320 0.000125537652 0.003131966373 7 24000000 24000000 168000000 4.032e+15
373	206470 336 116 268 0.000562740368 0.002404890986 12 0 4.4e-05 0.000176 7.744e-09
374	206806 80 47 320 0.000125537652 0.003131966373 3 52 440 544 199008
375	206886 160 56 250 0.000135537652 0.002306890986 6 14 80 348 25992
376	207046 52 53 90 0.000125537652 0.000374740368 2 52 52 104 5408
377	207098 161 47 320 0.000125537652 0.003131966373 6 14 468 670 232412
378	207259 54 209 305 0.001548890986 0.002835966377 2 14 14 28 392
380	207313 54 209 305 0.001548890986 0.002835966377 2 14 14 28 392
385	207367 342 0 257 0 0.002360890986 15 0 3 32 82
386	207709 628 0 319 0 0.003131966373 25 0 3 31 67
387	208337 618 57 257 0.000135537652 0.002360890986 24 0 2 24 36
388	208955 11 0 0 0 0 1 0 0 0 0
399	208966 11 0 0 0 0 1 0 0 0 0
400	208977 11 0 0 0 0 1 0 0 0 0
401	208988 11 0 0 0 0 1 0 0 0 0
410	208999 22 0 0 0 0 2 0 0 0 0
415	209021 22 0 0 0 0 2 0 0 0 0
419	209043 55 0 0 0 0 5 0 0 0 0
420	209098 55 0 0 0 0 5 0 0 0 0
434	209153 22 0 0 0 0 2 0 0 0 0
453	209175 11 0 0 0 0 1 0 0 0 0
454	209186 11 0 0 0 0 1 0 0 0 0
455	209197 11 0 0 0 0 1 0 0 0 0
462	209208 26 192 192 0.001503353375 0.001503353375 1 0 0 0 0
463	209234 26 192 192 0.001503353375 0.001503353375 1 0 0 0 0
474	209260 26 192 192 0.001503353375 0.001503353375 1 0 0 0 0
520	209286 50 50 87 0.000125537652 0.000374740368 2 0 0 0 0
521	209336 50 50 87 0.000125537652 0.000374740368 2 0 0 0 0
532	209386 50 50 87 0.000125537652 0.000374740368 2 0 0 0 0
545	209436 15 16 16 0 0 1 7504 7504 7504 56310016
546	209451 15 16 16 0 0 1 7504 7504 7504 56310016
548	209466 12 16 16 0 0 1 0 0 0 0
559	209478 12 16 16 0 0 1 0 0 0 0
573	209490 29 125 125 0.000564278008 0.000564278008 1 7504 7504 7504 56310016
574	209519 44 19 125 0 0.000564278008 2 7504 7504 15008 112620032
575	209563 73 19 125 0 0.000564278008 3 7504 7536 22576 169892608
576	209636 26 125 125 0.000564278008 0.000564278008 1 1 1 1 1
577	209662 39 19 125 0 0.000564278008 2 0 32 32 1024
578	209701 27 125 125 0.000564278008 0.000564278008 1 31 31 31 961
579	209728 26 125 125 0.000564278008 0.000564278008 1 1 1 1 1
580	209754 28 125 125 0.000564278008 0.000564278008 1 392 392 392 153664
588	209782 38 19 125 0 0.000564278008 2 0 0 0 0
590	209820 26 125 125 0.000564278008 0.000564278008 1 0 0 0 0
603	209846 15 21 21 0 0 1 7504 7504 7504 56310016
604	209861 15 21 21 0 0 1 7504 7504 7504 56310016
606	209876 12 21 21 0 0 1 0 0 0 0
617	209888 12 21 21 0 0 1 0 0 0 0
631	209900 57 50 323 0.000125537652 0.003131966373 2 7504 7504 15008 112620032
632	209957 57 50 323 0.000125537652 0.003131966373 2 7112 7504 14616 106890560
633	210014 85 50 323 0.000125537652 0.003131966373 3 7505 7505 22515 168975075
635	210099 53 50 323 0.000125537652 0.003131966373 2 1 393 394 154450
636	210152 26 323 323 0.003131966373 0.003131966373 1 1 1 1 1
637	210178 27 323 323 0.003131966373 0.003131966373 1 32 32 32 1024
638	210205 26 323 323 0.003131966373 0.003131966373 1 0 0 0 0
639	210231 26 323 323 0.003131966373 0.003131966373 1 0 0 0 0
646	210257 79 50 323 0.000125537652 0.003131966373 3 0 392 392 153664
648	210336 28 323 323 0.003131966373 0.003131966373 1 392 392 392 153664
649	210364 29 323 323 0.003131966373 0.003131966373 1 1072 1072 1072 1149184
650	210393 35 323 323 0.003131966373 0.003131966373 1 4294967295 4294967295 4294967295 1.844674406512e+19
660	210428 28 87 87 0.000374740368 0.000374740368 1 7504 7504 7504 56310016
661	210456 28 87 87 0.000374740368 0.000374740368 1 7504 7504 7504 56310016
662	210484 56 87 87 0.000374740368 0.000374740368 2 7505 7505 15010 112650050
664	210540 25 87 87 0.000374740368 0.000374740368 1 1 1 1 1
675	210565 25 87 87 0.000374740368 0.000374740368 1 0 0 0 0
689	210590 29 192 192 0.001503353375 0.001503353375 1 7504 7504 7504 56310016
690	210619 29 192 192 0.001503353375 0.001503353375 1 7504 7504 7504 56310016
691	210648 58 192 192 0.001503353375 0.001503353375 2 7505 7505 15010 112650050
693	210706 26 192 192 0.001503353375 0.001503353375 1 1 1 1 1
704	210732 26 192 192 0.001503353375 0.001503353375 1 0 0 0 0

