version 3
run CircleMobility-0-20250116-20:26:04-4792
attr configname CircleMobility
attr datetime 20250116-20:26:04
attr datetimef 20250116-202604
attr experiment CircleMobility
attr inifile SatelliteEnvironment.ini
attr iterationvars ""
attr iterationvarsd ""
attr iterationvarsf ""
attr measurement ""
attr network leosatelliteenvironment.SatelliteNetwork
attr processid 4792
attr repetition 0
attr replication #0
attr resultdir results
attr runnumber 0
attr seedset 0
config image-path ../../inet4.5/images
config extends "SatelliteNetwork, Area, Update"
config *.satellite1.mobility.typename CircleMobility
config *.satellite1.mobility.cx 600m
config *.satellite1.mobility.cy 300m
config *.satellite1.mobility.r 150m
config *.satellite1.mobility.startAngle 0deg
config *.satellite1.mobility.speed 40mps
config *.satellite2.mobility.typename CircleMobility
config *.satellite2.mobility.cx 600m
config *.satellite2.mobility.cy 300m
config *.satellite2.mobility.r 150m
config *.satellite2.mobility.startAngle 180deg
config *.satellite2.mobility.speed 40mps
config *.visualizer.*.mobilityVisualizer.displayMobilityTrajectories true
config *.visualizer.*.mobilityVisualizer.trajectoryLineColor "\"blue\""
config *.visualizer.*.mobilityVisualizer.trajectoryLineWidth 2
config *.*.ipv4.arp.typename GlobalArp
config *.userTerminal.ipv4.address "\"192.168.1.1\""
config *.userTerminal.ipv4.netmask "\"255.255.255.248\""
config *.satellite1.ipv4.address "\"192.168.1.2\""
config *.satellite1.ipv4.netmask "\"255.255.255.248\""
config *.satellite2.ipv4.address "\"192.168.1.4\""
config *.satellite2.ipv4.netmask "\"255.255.255.248\""
config *.groundStation.ipv4.address "\"192.168.1.3\""
config *.groundStation.ipv4.netmask "\"255.255.255.248\""
config *.configurator.config "xmldoc(\"SatelliteRoutingTable.xml\")"
config **.routingTable.debug true
config *.configurator.optimizeRoutes false
config *.userTerminal.numApps 2
config *.userTerminal.app[0].typename TcpClientApp
config *.userTerminal.app[0].io.connectAddress "\"192.168.1.2\""
config *.userTerminal.app[0].io.connectPort 8080
config *.userTerminal.app[0].source.productionInterval "uniform(0.5s, 1s)"
config *.userTerminal.app[0].source.packetLength "intuniform(100B, 500B)"
config *.userTerminal.app[1].typename UdpApp
config *.userTerminal.app[1].io.localPort 1000
config *.userTerminal.app[1].io.destAddress "\"192.168.1.2\""
config *.userTerminal.app[1].io.destPort 1000
config *.userTerminal.app[1].source.productionInterval "uniform(0.5s, 1s)"
config *.userTerminal.app[1].source.packetLength "intuniform(100B, 500B)"
config *.satellite*.numApps 3
config *.satellite*.app[0].typename TcpServerApp
config *.satellite*.app[0].listener.localPort 8080
config *.satellite*.app[1].typename UdpRequestResponseApp
config *.satellite*.app[1].io.localPort 1000
config *.satellite*.app[1].io.destAddress "\"192.168.1.3\""
config *.satellite*.app[1].io.destPort 1000
config *.satellite*.app[1].sink.tokenGenerator[0].numTokensPerPacket "intuniform(10, 20)"
config *.satellite*.app[1].sink.tokenGenerator[1].numTokensPerPacket "intuniform(5, 10)"
config *.satellite*.app[1].source.provider[0].packetLength "intuniform(100B, 1000B)"
config *.satellite*.app[1].source.provider[0].providingInterval "uniform(0s, 0.2s)"
config *.satellite*.app[2].typename TcpClientApp
config *.satellite*.app[2].io.connectAddress "\"192.168.1.3\""
config *.satellite*.app[2].io.connectPort 8000
config *.satellite*.app[2].source.productionInterval "uniform(0.5s, 1s)"
config *.satellite*.app[2].source.packetLength "intuniform(100B, 500B)"
config *.groundStation.numApps 2
config *.groundStation.app[0].typename TcpServerApp
config *.groundStation.app[0].listener.localPort 8000
config *.groundStation.app[1].typename UdpRequestResponseApp
config *.groundStation.app[1].io.localPort 1000
config *.groundStation.app[1].io.destAddress "\"192.168.1.2\""
config *.groundStation.app[1].io.destPort 1000
config *.groundStation.app[1].sink.tokenGenerator[0].numTokensPerPacket "intuniform(10, 20)"
config *.groundStation.app[1].sink.tokenGenerator[1].numTokensPerPacket "intuniform(5, 10)"
config *.groundStation.app[1].source.provider[0].packetLength "intuniform(100B, 1000B)"
config *.groundStation.app[1].source.provider[0].providingInterval "uniform(0s, 0.2s)"
config *.satellite1.numApps 2
config *.satellite1.app[0].typename TcpClientApp
config *.satellite1.app[0].io.connectAddress "\"192.168.1.4\""
config *.satellite1.app[0].io.connectPort 8080
config *.satellite1.app[0].source.productionInterval "uniform(0s, 20s)"
config *.satellite1.app[0].source.packetLength "intuniform(100B, 200B)"
config *.satellite1.app[0].source.packetData "intuniform(0, 1)"
config *.satellite1.app[1].typename UdpApp
config *.satellite1.app[1].io.localPort 1000
config *.satellite1.app[1].io.destAddress "\"192.168.1.4\""
config *.satellite1.app[1].io.destPort 1000
config *.satellite1.app[1].source.productionInterval 1s
config *.satellite1.app[1].source.packetLength "intuniform(100B, 200B)"
config *.satellite1.app[1].source.packetData "intuniform(0, 1)"
config *.satellite2.numApps 2
config *.satellite2.app[0].typename TcpServerApp
config *.satellite2.app[0].listener.localPort 8080
config *.satellite2.app[1].typename UdpRequestResponseApp
config *.satellite2.app[1].io.localPort 1000
config *.satellite2.app[1].io.destAddress "\"192.168.1.2\""
config *.satellite2.app[1].io.destPort 1000
config *.satellite2.app[1].sink.tokenGenerator[0].numTokensPerPacket "intuniform(10, 20)"
config *.satellite2.app[1].sink.tokenGenerator[1].numTokensPerPacket "intuniform(5, 10)"
config *.satellite2.app[1].source.provider[0].packetLength "intuniform(100B, 1000B)"
config *.satellite2.app[1].source.provider[0].providingInterval "uniform(0s, 0.2s)"
config *.satellite2.wlan[0].typename Ieee80211Interface
config *.satellite1.wlan[0].typename Ieee80211Interface
config *.userTerminal.wlan[0].radio.antenna.typename CosineAntenna
config *.userTerminal.wlan[0].radio.antenna.beamWidth 30deg
config *.userTerminal.wlan[0].radio.antenna.maxGain 10dB
config *.userTerminal.wlan[0].radio.antenna.minGain -10dB
config *.userTerminal.wlan[0].radio.transmitter.power 25mW
config *.groundStation.wlan[0].radio.antenna.typename CosineAntenna
config *.groundStation.wlan[0].radio.antenna.beamWidth 25deg
config *.groundStation.wlan[0].radio.antenna.maxGain 10dB
config *.groundStation.wlan[0].radio.antenna.minGain -10dB
config *.groundStation.wlan[0].radio.transmitter.power 25mW
config *.radioMedium.transmissionPathFilter "\"*.userTerminal wlan[0] <-> *.satellite1 wlan[0]; *.satellite1 wlan[0] <-> *.groundStation wlan[0]; *.satellite1 wlan[0] <-> *.satellite2 wlan[0]\""
config **.wlan[*].typename Ieee80211Interface
config **.wlan[*].dataRate 10Mbps
config *.visualizer.*.radioVisualizer.displayRadios true
config *.visualizer.*.radioVisualizer.displayAntennaLobes true
config *.visualizer.*.dataLinkVisualizer.displayLinks true
config *.visualizer.*.transportConnectionVisualizer.displayConnections true
config *.radioMedium.typename Ieee80211ScalarRadioMedium
config *.radioMedium.datapath "\"default\""
config **.debug true
config **.wlan[*].radio.transmitter.debug true
config **.wlan[*].radio.receiver.debug true
config **.constraintAreaMinX 0m
config **.constraintAreaMinY 0m
config **.constraintAreaMinZ 0m
config **.constraintAreaMaxX 1000m
config **.constraintAreaMaxY 600m
config **.constraintAreaMaxZ 0m
config **.updateInterval 0.1s
config network leosatelliteenvironment.SatelliteNetwork

vector 0 SatelliteNetwork.userTerminal.lo[0].lo rcvdPkFromHl:vector(packetBytes) ETV
attr interpolationmode none
attr recordingmode vector(packetBytes)
attr source packetReceivedFromUpper
attr title "packets received from higher layer, packetBytes"
vector 1 SatelliteNetwork.userTerminal.lo[0].lo passedUpPk:vector(packetBytes) ETV
attr interpolationmode none
attr recordingmode vector(packetBytes)
attr source packetSentToUpper
attr title "packets passed to higher layer, packetBytes"
vector 2 SatelliteNetwork.userTerminal.lo[0] packetDropInterfaceDown:vector(packetBytes) ETV
attr interpolationmode none
attr recordingmode vector(packetBytes)
attr source packetDropReasonIsInterfaceDown(packetDropped)
attr title "packet drops: interface down, packetBytes"
vector 3 SatelliteNetwork.userTerminal.lo[0] packetDropNoCarrier:vector(packetBytes) ETV
attr interpolationmode none
attr recordingmode vector(packetBytes)
attr source packetDropReasonIsNoCarrier(packetDropped)
attr title "packet drops: no carrier, packetBytes"
vector 4 SatelliteNetwork.userTerminal.wlan[0].mac.dcf.channelAccess.pendingQueue queueLength:vector ETV
attr autoWarmupFilter false
attr interpolationmode sample-hold
attr recordingmode vector
attr source "warmup(atomic(constant0(packetPushEnded) + count(packetPushStarted) - count(packetPulled) - count(packetRemoved) - count(packetDropped)))"
attr title "queue length"
attr unit pk
vector 5 SatelliteNetwork.userTerminal.wlan[0].mac.dcf.channelAccess.pendingQueue queueBitLength:vector ETV
attr autoWarmupFilter false
attr interpolationmode sample-hold
attr recordingmode vector
attr source "warmup(atomic(constant0(packetPushEnded) + sum(packetLength(packetPushStarted)) - sum(packetLength(packetPulled)) - sum(packetLength(packetRemoved)) - sum(packetLength(packetDropped))))"
attr title "queue bit length"
attr unit b
vector 6 SatelliteNetwork.userTerminal.wlan[0].mac.dcf.channelAccess.pendingQueue queueingTime:vector ETV
attr interpolationmode none
attr recordingmode vector
attr source queueingTime(packetPulled)
attr title "queueing times"
attr unit s
vector 7 SatelliteNetwork.userTerminal.wlan[0].mac.dcf.channelAccess.pendingQueue incomingPacketLengths:vector ETV
attr interpolationmode none
attr recordingmode vector
attr source packetLength(packetPushStarted)
attr title "incoming packet lengths"
attr unit b
vector 8 SatelliteNetwork.userTerminal.wlan[0].mac.dcf.channelAccess.pendingQueue incomingDataRate:vector ETV
attr interpolationmode linear
attr recordingmode vector
attr source throughput(packetPushStarted)
attr title "incoming datarate"
attr unit bps
vector 9 SatelliteNetwork.userTerminal.wlan[0].mac.dcf.channelAccess.pendingQueue outgoingPacketLengths:vector ETV
attr interpolationmode none
attr recordingmode vector
attr source packetLength(packetPulled)
attr title "outgoing packet lengths"
attr unit b
vector 10 SatelliteNetwork.userTerminal.wlan[0].mac.dcf.channelAccess.pendingQueue outgoingDataRate:vector ETV
attr interpolationmode linear
attr recordingmode vector
attr source throughput(packetPulled)
attr title "outgoing datarate"
attr unit bps
vector 11 SatelliteNetwork.userTerminal.wlan[0].mac.dcf.channelAccess.pendingQueue droppedPacketLengthsQueueOverflow:vector ETV
attr interpolationmode none
attr recordingmode vector
attr source packetLength(packetDropReasonIsQueueOverflow(packetDropped))
attr title "dropped packet lengths: queue overflow"
attr unit b
vector 12 SatelliteNetwork.userTerminal.wlan[0].mac.dcf.channelAccess.pendingQueue flowQueueingTime:vector ETV
attr interpolationmode none
attr recordingmode vector
attr source queueingTime(demuxFlow(packetPulled))
attr title "flow queueing times"
attr unit s
vector 13 SatelliteNetwork.userTerminal.wlan[0].mac.dcf.channelAccess.pendingQueue flowIncomingDataRate:vector ETV
attr interpolationmode linear
attr recordingmode vector
attr source throughput(flowPacketLength(demuxFlow(packetPushStarted)))
attr title "flow specific incoming data rate"
attr unit bps
vector 14 SatelliteNetwork.userTerminal.wlan[0].mac.dcf.channelAccess.pendingQueue flowOutgoingDataRate:vector ETV
attr interpolationmode linear
attr recordingmode vector
attr source throughput(flowPacketLength(demuxFlow(packetPulled)))
attr title "flow specific outgoing data rate"
attr unit bps
vector 15 SatelliteNetwork.userTerminal.wlan[0].mac.dcf.channelAccess.inProgressFrames queueingTime:vector ETV
attr interpolationmode none
attr recordingmode vector
attr source queueingTime(packetDequeued)
attr title "queueing times"
vector 16 SatelliteNetwork.userTerminal.wlan[0].mac.dcf.channelAccess.inProgressFrames queueLength:vector ETV
attr autoWarmupFilter false
attr interpolationmode sample-hold
attr recordingmode vector
attr source "warmup(count(packetEnqueued) - count(packetDequeued))"
attr title "queue length"
vector 17 SatelliteNetwork.userTerminal.wlan[0].mac.dcf.channelAccess.contention backoffPeriodGenerated:vector ETV
attr interpolationmode none
attr recordingmode vector
attr title "backoff periods"
vector 18 SatelliteNetwork.userTerminal.wlan[0].mac.dcf.channelAccess.contention backoffActive:vector ETV
attr autoWarmupFilter false
attr interpolationmode sample-hold
attr recordingmode vector
attr source warmup(count(backoffStarted)-count(backoffStopped))
attr title "backoff active"
vector 19 SatelliteNetwork.userTerminal.wlan[0].mac.dcf.channelAccess.contention stateChanged:vector ETV
attr enum IDLE,DEFER,IFS_AND_BACKOFF
attr interpolationmode none
attr recordingmode vector
attr title "contention state changed"
attr type enum
vector 20 SatelliteNetwork.userTerminal.wlan[0].mac.dcf.recipientMacDataService packetDropDuplicateDetected:vector(packetBytes) ETV
attr interpolationmode none
attr recordingmode vector(packetBytes)
attr source packetDropReasonIsDuplicateDetected(packetDropped)
attr title "packet drops: duplicate detected, packetBytes"
vector 21 SatelliteNetwork.userTerminal.wlan[0].mac.dcf.recoveryProcedure contentionWindowChanged:vector ETV
attr interpolationmode sample-hold
attr recordingmode vector
attr title "contention window"
vector 22 SatelliteNetwork.userTerminal.wlan[0].mac.dcf packetSentToPeer:vector(packetBytes) ETV
attr interpolationmode none
attr recordingmode vector(packetBytes)
attr title "packets sent, packetBytes"
vector 23 SatelliteNetwork.userTerminal.wlan[0].mac.dcf packetSentToPeerUnicast:vector(packetBytes) ETV
attr interpolationmode none
attr recordingmode vector(packetBytes)
attr source ieee80211Unicast(packetSentToPeer)
attr title "packets sent: unicast, packetBytes"
vector 24 SatelliteNetwork.userTerminal.wlan[0].mac.dcf packetSentToPeerMulticast:vector(packetBytes) ETV
attr interpolationmode none
attr recordingmode vector(packetBytes)
attr source ieee80211Multicast(packetSentToPeer)
attr title "packets sent: multicast, packetBytes"
vector 25 SatelliteNetwork.userTerminal.wlan[0].mac.dcf packetSentToPeerBroadcast:vector(packetBytes) ETV
attr interpolationmode none
attr recordingmode vector(packetBytes)
attr source ieee80211Broadcast(packetSentToPeer)
attr title "packets sent: broadcast , packetBytes"
vector 26 SatelliteNetwork.userTerminal.wlan[0].mac.dcf packetSentToPeerWithRetry:vector(packetBytes) ETV
attr interpolationmode none
attr recordingmode vector(packetBytes)
attr source ieee80211Retry(packetSentToPeer)
attr title "packets sent: with retry, packetBytes"
vector 27 SatelliteNetwork.userTerminal.wlan[0].mac.dcf packetSentToPeerWithoutRetry:vector(packetBytes) ETV
attr interpolationmode none
attr recordingmode vector(packetBytes)
attr source ieee80211NotRetry(packetSentToPeer)
attr title "packets sent: without retry, packetBytes"
vector 28 SatelliteNetwork.userTerminal.wlan[0].mac.dcf packetReceivedFromPeer:vector(packetBytes) ETV
attr interpolationmode none
attr recordingmode vector(packetBytes)
attr title "packets received, packetBytes"
vector 29 SatelliteNetwork.userTerminal.wlan[0].mac.dcf packetReceivedFromPeerUnicast:vector(packetBytes) ETV
attr interpolationmode none
attr recordingmode vector(packetBytes)
attr source ieee80211Unicast(packetReceivedFromPeer)
attr title "packets received: unicast, packetBytes"
vector 30 SatelliteNetwork.userTerminal.wlan[0].mac.dcf packetReceivedFromPeerMulticast:vector(packetBytes) ETV
attr interpolationmode none
attr recordingmode vector(packetBytes)
attr source ieee80211Multicast(packetReceivedFromPeer)
attr title "packets received: multicast, packetBytes"
vector 31 SatelliteNetwork.userTerminal.wlan[0].mac.dcf packetReceivedFromPeerBroadcast:vector(packetBytes) ETV
attr interpolationmode none
attr recordingmode vector(packetBytes)
attr source ieee80211Broadcast(packetReceivedFromPeer)
attr title "packets received: broadcast, packetBytes"
vector 32 SatelliteNetwork.userTerminal.wlan[0].mac.dcf packetReceivedFromPeerWithRetry:vector(packetBytes) ETV
attr interpolationmode none
attr recordingmode vector(packetBytes)
attr source ieee80211Retry(packetReceivedFromPeer)
attr title "packets received: with retry, packetBytes"
vector 33 SatelliteNetwork.userTerminal.wlan[0].mac.dcf packetReceivedFromPeerWithoutRetry:vector(packetBytes) ETV
attr interpolationmode none
attr recordingmode vector(packetBytes)
attr source ieee80211NotRetry(packetReceivedFromPeer)
attr title "packets received: without retry, packetBytes"
vector 34 SatelliteNetwork.userTerminal.wlan[0].mac.dcf packetDrop:vector(packetBytes) ETV
attr interpolationmode none
attr recordingmode vector(packetBytes)
attr source packetDropped
attr title "packet drops, packetBytes"
vector 35 SatelliteNetwork.userTerminal.wlan[0].mac.dcf packetDropNotAddressedToUs:vector(packetBytes) ETV
attr interpolationmode none
attr recordingmode vector(packetBytes)
attr source packetDropReasonIsNotAddressedToUs(packetDropped)
attr title "packet drops: not addressed to us, packetBytes"
vector 36 SatelliteNetwork.userTerminal.wlan[0].mac.dcf packetDropQueueOverflow:vector(packetBytes) ETV
attr interpolationmode none
attr recordingmode vector(packetBytes)
attr source packetDropReasonIsQueueOverflow(packetDropped)
attr title "packet drops: queue overflow, packetBytes"
vector 37 SatelliteNetwork.userTerminal.wlan[0].mac.dcf packetDropRetryLimitReached:vector(packetBytes) ETV
attr interpolationmode none
attr recordingmode vector(packetBytes)
attr source packetDropReasonIsRetryLimitReached(packetDropped)
attr title "packet drops: retry limit reached, packetBytes"
vector 38 SatelliteNetwork.userTerminal.wlan[0].mac.dcf frameSequenceActive:vector ETV
attr autoWarmupFilter false
attr interpolationmode sample-hold
attr recordingmode vector
attr source warmup(count(frameSequenceStarted)-count(frameSequenceFinished))
attr title "frame sequence active"
vector 39 SatelliteNetwork.userTerminal.wlan[0].mac.dcf datarateSelected:vector ETV
attr interpolationmode none
attr recordingmode vector
attr title "datarates selected"
vector 40 SatelliteNetwork.userTerminal.wlan[0].mac.rx nav:vector ETV
attr interpolationmode linear
attr recordingmode vector
attr source navChanged
attr title "network allocation vector"
vector 41 SatelliteNetwork.userTerminal.wlan[0].mac packetSentToUpper:vector(packetBytes) ETV
attr interpolationmode none
attr recordingmode vector(packetBytes)
attr title "packets sent to upper layer, packetBytes"
vector 42 SatelliteNetwork.userTerminal.wlan[0].mac packetSentToLower:vector(packetBytes) ETV
attr interpolationmode none
attr recordingmode vector(packetBytes)
attr title "packets sent to lower layer, packetBytes"
vector 43 SatelliteNetwork.userTerminal.wlan[0].mac packetReceivedFromUpper:vector(packetBytes) ETV
attr interpolationmode none
attr recordingmode vector(packetBytes)
attr title "packets received from upper layer, packetBytes"
vector 44 SatelliteNetwork.userTerminal.wlan[0].mac packetReceivedFromLower:vector(packetBytes) ETV
attr interpolationmode none
attr recordingmode vector(packetBytes)
attr title "packets received from lower layer, packetBytes"
vector 45 SatelliteNetwork.userTerminal.wlan[0].mac packetDrop:vector(packetBytes) ETV
attr interpolationmode none
attr recordingmode vector(packetBytes)
attr source packetDropped
attr title "packet drops, packetBytes"
vector 46 SatelliteNetwork.userTerminal.wlan[0].mac packetDropIncorrectlyReceived:vector(packetBytes) ETV
attr interpolationmode none
attr recordingmode vector(packetBytes)
attr source packetDropReasonIsIncorrectlyReceived(packetDropped)
attr title "packet drops: incorrectly received, packetBytes"
vector 47 SatelliteNetwork.userTerminal.wlan[0].mac packetDropNotAddressedToUs:vector(packetBytes) ETV
attr interpolationmode none
attr recordingmode vector(packetBytes)
attr source packetDropReasonIsNotAddressedToUs(packetDropped)
attr title "packet drops: not addressed to us, packetBytes"
vector 48 SatelliteNetwork.userTerminal.wlan[0].mac packetDropQueueOverflow:vector(packetBytes) ETV
attr interpolationmode none
attr recordingmode vector(packetBytes)
attr source packetDropReasonIsQueueOverflow(packetDropped)
attr title "packet drops: queue overflow, packetBytes"
vector 49 SatelliteNetwork.userTerminal.wlan[0].mac packetDropRetryLimitReached:vector(packetBytes) ETV
attr interpolationmode none
attr recordingmode vector(packetBytes)
attr source packetDropReasonIsRetryLimitReached(packetDropped)
attr title "packet drops: retry limit reached, packetBytes"
vector 50 SatelliteNetwork.userTerminal.wlan[0].mac packetDropDuplicateDetected:vector(packetBytes) ETV
attr interpolationmode none
attr recordingmode vector(packetBytes)
attr source packetDropReasonIsDuplicateDetected(packetDropped)
attr title "packet drops: duplicate detected, packetBytes"
vector 51 SatelliteNetwork.userTerminal.wlan[0].mac packetDropOther:vector(packetBytes) ETV
attr interpolationmode none
attr recordingmode vector(packetBytes)
attr source packetDropReasonIsOther(packetDropped)
attr title "packet drops: other, packetBytes"
vector 52 SatelliteNetwork.userTerminal.wlan[0].radio radioMode:vector ETV
attr interpolationmode sample-hold
attr recordingmode vector
attr source radioModeChanged
attr title "Radio mode"
vector 53 SatelliteNetwork.userTerminal.wlan[0].radio receptionState:vector ETV
attr interpolationmode sample-hold
attr recordingmode vector
attr source receptionStateChanged
attr title "Radio reception state"
vector 54 SatelliteNetwork.userTerminal.wlan[0].radio transmissionState:vector ETV
attr interpolationmode sample-hold
attr recordingmode vector
attr source transmissionStateChanged
attr title "Radio transmission state"
vector 55 SatelliteNetwork.userTerminal.wlan[0].radio radioChannel:vector ETV
attr interpolationmode sample-hold
attr recordingmode vector
attr source radioChannelChanged
attr title "Radio channel"
vector 56 SatelliteNetwork.userTerminal.wlan[0] packetDropInterfaceDown:vector(packetBytes) ETV
attr interpolationmode none
attr recordingmode vector(packetBytes)
attr source packetDropReasonIsInterfaceDown(packetDropped)
attr title "packet drops: interface down, packetBytes"
vector 57 SatelliteNetwork.userTerminal.wlan[0] packetDropNoCarrier:vector(packetBytes) ETV
attr interpolationmode none
attr recordingmode vector(packetBytes)
attr source packetDropReasonIsNoCarrier(packetDropped)
attr title "packet drops: no carrier, packetBytes"
vector 58 SatelliteNetwork.userTerminal.ipv4.ip packetDropAddressResolutionFailed:vector(packetBytes) ETV
attr interpolationmode none
attr recordingmode vector(packetBytes)
attr source packetDropReasonIsAddressResolutionFailed(packetDropped)
attr title "packet drop: address resolution failed, packetBytes"
vector 59 SatelliteNetwork.userTerminal.ipv4.ip packetDropHopLimitReached:vector(packetBytes) ETV
attr interpolationmode none
attr recordingmode vector(packetBytes)
attr source packetDropReasonIsHopLimitReached(packetDropped)
attr title "packet drop: hop limit reached, packetBytes"
vector 60 SatelliteNetwork.userTerminal.ipv4.ip packetDropForwardingDisabled:vector(packetBytes) ETV
attr interpolationmode none
attr recordingmode vector(packetBytes)
attr source packetDropReasonIsForwardingDisabled(packetDropped)
attr title "packet drop: forwarding disabled, packetBytes"
vector 61 SatelliteNetwork.userTerminal.ipv4.ip packetDropNoInterfaceFound:vector(packetBytes) ETV
attr interpolationmode none
attr recordingmode vector(packetBytes)
attr source packetDropReasonIsNoInterfaceFound(packetDropped)
attr title "packet drop: no interface found, packetBytes"
vector 62 SatelliteNetwork.userTerminal.ipv4.ip packetDropNoRouteFound:vector(packetBytes) ETV
attr interpolationmode none
attr recordingmode vector(packetBytes)
attr source packetDropReasonIsNoRouteFound(packetDropped)
attr title "packet drop: no route found, packetBytes"
vector 63 SatelliteNetwork.userTerminal.ipv4.ip packetDropUndefined:vector(packetBytes) ETV
attr interpolationmode none
attr recordingmode vector(packetBytes)
attr source packetDropReasonIsUndefined(packetDropped)
attr title "packet drop: undefined, packetBytes"
vector 64 SatelliteNetwork.userTerminal.udp packetSent:vector(packetBytes) ETV
attr interpolationmode none
attr recordingmode vector(packetBytes)
attr source packetSent
attr title "packets sent, packetBytes"
vector 65 SatelliteNetwork.userTerminal.udp packetReceived:vector(packetBytes) ETV
attr interpolationmode none
attr recordingmode vector(packetBytes)
attr source packetReceived
attr title "packets received, packetBytes"
vector 66 SatelliteNetwork.userTerminal.udp passedUpPk:vector(count) ETV
attr interpolationmode none
attr recordingmode vector(count)
attr source packetSentToUpper
attr title "packets passed up, count"
vector 67 SatelliteNetwork.userTerminal.udp droppedPkWrongPort:vector(count) ETV
attr interpolationmode none
attr recordingmode vector(count)
attr source packetDropReasonIsNoPortFound(packetDropped)
attr title "packets dropped (wrong port), count"
vector 68 SatelliteNetwork.userTerminal.udp droppedPkBadChecksum:vector(count) ETV
attr interpolationmode none
attr recordingmode vector(count)
attr source packetDropReasonIsIncorrectlyReceived(packetDropped)
attr title "packets dropped (checksum error), count"
vector 69 SatelliteNetwork.userTerminal.app[0].source packetLengths:vector ETV
attr interpolationmode none
attr recordingmode vector
attr source packetLength(packetPushed)
attr title "packet lengths"
attr unit b
vector 70 SatelliteNetwork.userTerminal.app[0].source dataRate:vector ETV
attr interpolationmode linear
attr recordingmode vector
attr source throughput(packetPushed)
attr title "data rate"
attr unit bps
vector 71 SatelliteNetwork.userTerminal.app[0].sink droppedPacketLengths:vector ETV
attr interpolationmode none
attr recordingmode vector
attr source packetLength(packetDropped)
attr title "dropped packet lengths"
attr unit b
vector 72 SatelliteNetwork.userTerminal.app[0].sink droppedDataRate:vector ETV
attr interpolationmode linear
attr recordingmode vector
attr source throughput(packetDropped)
attr title "dropped data rate"
attr unit bps
vector 73 SatelliteNetwork.userTerminal.app[0].sink packetLengths:vector ETV
attr interpolationmode none
attr recordingmode vector
attr source packetLength(packetPushed)
attr title "packet lengths"
attr unit b
vector 74 SatelliteNetwork.userTerminal.app[0].sink dataRate:vector ETV
attr interpolationmode linear
attr recordingmode vector
attr source throughput(packetPushed)
attr title "data rate"
attr unit bps
vector 75 SatelliteNetwork.userTerminal.app[0].sink meanBitLifeTimePerPacket:vector ETV
attr interpolationmode none
attr recordingmode vector
attr source weightedMeanPerGroup(groupRegionsPerPacket(lifeTimePerRegion(packetPushed)))
attr title "mean bit life time per packet"
attr unit s
vector 76 SatelliteNetwork.userTerminal.app[0].sink packetJitter:vector ETV
attr interpolationmode none
attr recordingmode vector
attr source jitter(weightedMeanPerGroup(groupRegionsPerPacket(lifeTimePerRegion(packetPushed))))
attr title "packet jitter"
attr unit s
vector 77 SatelliteNetwork.userTerminal.app[0].sink packetDelayDifferenceToMean:vector ETV
attr interpolationmode none
attr recordingmode vector
attr source differenceToMean(weightedMeanPerGroup(groupRegionsPerPacket(lifeTimePerRegion(packetPushed))))
attr title "packet delay difference to mean"
attr unit s
vector 78 SatelliteNetwork.userTerminal.app[0].sink packetDelayVariation:vector ETV
attr recordingmode vector
attr source stddev(weightedMeanPerGroup(groupRegionsPerPacket(lifeTimePerRegion(packetPushed))))
attr title "packet delay variation"
attr unit s
vector 79 SatelliteNetwork.userTerminal.app[1].source packetLengths:vector ETV
attr interpolationmode none
attr recordingmode vector
attr source packetLength(packetPushed)
attr title "packet lengths"
attr unit b
vector 80 SatelliteNetwork.userTerminal.app[1].source dataRate:vector ETV
attr interpolationmode linear
attr recordingmode vector
attr source throughput(packetPushed)
attr title "data rate"
attr unit bps
vector 81 SatelliteNetwork.userTerminal.app[1].sink droppedPacketLengths:vector ETV
attr interpolationmode none
attr recordingmode vector
attr source packetLength(packetDropped)
attr title "dropped packet lengths"
attr unit b
vector 82 SatelliteNetwork.userTerminal.app[1].sink droppedDataRate:vector ETV
attr interpolationmode linear
attr recordingmode vector
attr source throughput(packetDropped)
attr title "dropped data rate"
attr unit bps
vector 83 SatelliteNetwork.userTerminal.app[1].sink packetLengths:vector ETV
attr interpolationmode none
attr recordingmode vector
attr source packetLength(packetPushed)
attr title "packet lengths"
attr unit b
vector 84 SatelliteNetwork.userTerminal.app[1].sink dataRate:vector ETV
attr interpolationmode linear
attr recordingmode vector
attr source throughput(packetPushed)
attr title "data rate"
attr unit bps
vector 85 SatelliteNetwork.userTerminal.app[1].sink meanBitLifeTimePerPacket:vector ETV
attr interpolationmode none
attr recordingmode vector
attr source weightedMeanPerGroup(groupRegionsPerPacket(lifeTimePerRegion(packetPushed)))
attr title "mean bit life time per packet"
attr unit s
vector 86 SatelliteNetwork.userTerminal.app[1].sink packetJitter:vector ETV
attr interpolationmode none
attr recordingmode vector
attr source jitter(weightedMeanPerGroup(groupRegionsPerPacket(lifeTimePerRegion(packetPushed))))
attr title "packet jitter"
attr unit s
vector 87 SatelliteNetwork.userTerminal.app[1].sink packetDelayDifferenceToMean:vector ETV
attr interpolationmode none
attr recordingmode vector
attr source differenceToMean(weightedMeanPerGroup(groupRegionsPerPacket(lifeTimePerRegion(packetPushed))))
attr title "packet delay difference to mean"
attr unit s
vector 88 SatelliteNetwork.userTerminal.app[1].sink packetDelayVariation:vector ETV
attr recordingmode vector
attr source stddev(weightedMeanPerGroup(groupRegionsPerPacket(lifeTimePerRegion(packetPushed))))
attr title "packet delay variation"
attr unit s
vector 89 SatelliteNetwork.userTerminal.app[1].io packetSent:vector(packetBytes) ETV
attr interpolationmode none
attr recordingmode vector(packetBytes)
attr source packetSent
attr title "packets sent, packetBytes"
vector 90 SatelliteNetwork.userTerminal.app[1].io packetReceived:vector(packetBytes) ETV
attr interpolationmode none
attr recordingmode vector(packetBytes)
attr source packetReceived
attr title "packets received, packetBytes"
vector 91 SatelliteNetwork.satellite1.lo[0].lo rcvdPkFromHl:vector(packetBytes) ETV
attr interpolationmode none
attr recordingmode vector(packetBytes)
attr source packetReceivedFromUpper
attr title "packets received from higher layer, packetBytes"
vector 92 SatelliteNetwork.satellite1.lo[0].lo passedUpPk:vector(packetBytes) ETV
attr interpolationmode none
attr recordingmode vector(packetBytes)
attr source packetSentToUpper
attr title "packets passed to higher layer, packetBytes"
vector 93 SatelliteNetwork.satellite1.lo[0] packetDropInterfaceDown:vector(packetBytes) ETV
attr interpolationmode none
attr recordingmode vector(packetBytes)
attr source packetDropReasonIsInterfaceDown(packetDropped)
attr title "packet drops: interface down, packetBytes"
vector 94 SatelliteNetwork.satellite1.lo[0] packetDropNoCarrier:vector(packetBytes) ETV
attr interpolationmode none
attr recordingmode vector(packetBytes)
attr source packetDropReasonIsNoCarrier(packetDropped)
attr title "packet drops: no carrier, packetBytes"
vector 95 SatelliteNetwork.satellite1.wlan[0].mac.dcf.channelAccess.pendingQueue queueLength:vector ETV
attr autoWarmupFilter false
attr interpolationmode sample-hold
attr recordingmode vector
attr source "warmup(atomic(constant0(packetPushEnded) + count(packetPushStarted) - count(packetPulled) - count(packetRemoved) - count(packetDropped)))"
attr title "queue length"
attr unit pk
vector 96 SatelliteNetwork.satellite1.wlan[0].mac.dcf.channelAccess.pendingQueue queueBitLength:vector ETV
attr autoWarmupFilter false
attr interpolationmode sample-hold
attr recordingmode vector
attr source "warmup(atomic(constant0(packetPushEnded) + sum(packetLength(packetPushStarted)) - sum(packetLength(packetPulled)) - sum(packetLength(packetRemoved)) - sum(packetLength(packetDropped))))"
attr title "queue bit length"
attr unit b
vector 97 SatelliteNetwork.satellite1.wlan[0].mac.dcf.channelAccess.pendingQueue queueingTime:vector ETV
attr interpolationmode none
attr recordingmode vector
attr source queueingTime(packetPulled)
attr title "queueing times"
attr unit s
vector 98 SatelliteNetwork.satellite1.wlan[0].mac.dcf.channelAccess.pendingQueue incomingPacketLengths:vector ETV
attr interpolationmode none
attr recordingmode vector
attr source packetLength(packetPushStarted)
attr title "incoming packet lengths"
attr unit b
vector 99 SatelliteNetwork.satellite1.wlan[0].mac.dcf.channelAccess.pendingQueue incomingDataRate:vector ETV
attr interpolationmode linear
attr recordingmode vector
attr source throughput(packetPushStarted)
attr title "incoming datarate"
attr unit bps
vector 100 SatelliteNetwork.satellite1.wlan[0].mac.dcf.channelAccess.pendingQueue outgoingPacketLengths:vector ETV
attr interpolationmode none
attr recordingmode vector
attr source packetLength(packetPulled)
attr title "outgoing packet lengths"
attr unit b
vector 101 SatelliteNetwork.satellite1.wlan[0].mac.dcf.channelAccess.pendingQueue outgoingDataRate:vector ETV
attr interpolationmode linear
attr recordingmode vector
attr source throughput(packetPulled)
attr title "outgoing datarate"
attr unit bps
vector 102 SatelliteNetwork.satellite1.wlan[0].mac.dcf.channelAccess.pendingQueue droppedPacketLengthsQueueOverflow:vector ETV
attr interpolationmode none
attr recordingmode vector
attr source packetLength(packetDropReasonIsQueueOverflow(packetDropped))
attr title "dropped packet lengths: queue overflow"
attr unit b
vector 103 SatelliteNetwork.satellite1.wlan[0].mac.dcf.channelAccess.pendingQueue flowQueueingTime:vector ETV
attr interpolationmode none
attr recordingmode vector
attr source queueingTime(demuxFlow(packetPulled))
attr title "flow queueing times"
attr unit s
vector 104 SatelliteNetwork.satellite1.wlan[0].mac.dcf.channelAccess.pendingQueue flowIncomingDataRate:vector ETV
attr interpolationmode linear
attr recordingmode vector
attr source throughput(flowPacketLength(demuxFlow(packetPushStarted)))
attr title "flow specific incoming data rate"
attr unit bps
vector 105 SatelliteNetwork.satellite1.wlan[0].mac.dcf.channelAccess.pendingQueue flowOutgoingDataRate:vector ETV
attr interpolationmode linear
attr recordingmode vector
attr source throughput(flowPacketLength(demuxFlow(packetPulled)))
attr title "flow specific outgoing data rate"
attr unit bps
vector 106 SatelliteNetwork.satellite1.wlan[0].mac.dcf.channelAccess.inProgressFrames queueingTime:vector ETV
attr interpolationmode none
attr recordingmode vector
attr source queueingTime(packetDequeued)
attr title "queueing times"
vector 107 SatelliteNetwork.satellite1.wlan[0].mac.dcf.channelAccess.inProgressFrames queueLength:vector ETV
attr autoWarmupFilter false
attr interpolationmode sample-hold
attr recordingmode vector
attr source "warmup(count(packetEnqueued) - count(packetDequeued))"
attr title "queue length"
vector 108 SatelliteNetwork.satellite1.wlan[0].mac.dcf.channelAccess.contention backoffPeriodGenerated:vector ETV
attr interpolationmode none
attr recordingmode vector
attr title "backoff periods"
vector 109 SatelliteNetwork.satellite1.wlan[0].mac.dcf.channelAccess.contention backoffActive:vector ETV
attr autoWarmupFilter false
attr interpolationmode sample-hold
attr recordingmode vector
attr source warmup(count(backoffStarted)-count(backoffStopped))
attr title "backoff active"
vector 110 SatelliteNetwork.satellite1.wlan[0].mac.dcf.channelAccess.contention stateChanged:vector ETV
attr enum IDLE,DEFER,IFS_AND_BACKOFF
attr interpolationmode none
attr recordingmode vector
attr title "contention state changed"
attr type enum
vector 111 SatelliteNetwork.satellite1.wlan[0].mac.dcf.recipientMacDataService packetDropDuplicateDetected:vector(packetBytes) ETV
attr interpolationmode none
attr recordingmode vector(packetBytes)
attr source packetDropReasonIsDuplicateDetected(packetDropped)
attr title "packet drops: duplicate detected, packetBytes"
vector 112 SatelliteNetwork.satellite1.wlan[0].mac.dcf.recoveryProcedure contentionWindowChanged:vector ETV
attr interpolationmode sample-hold
attr recordingmode vector
attr title "contention window"
vector 113 SatelliteNetwork.satellite1.wlan[0].mac.dcf packetSentToPeer:vector(packetBytes) ETV
attr interpolationmode none
attr recordingmode vector(packetBytes)
attr title "packets sent, packetBytes"
vector 114 SatelliteNetwork.satellite1.wlan[0].mac.dcf packetSentToPeerUnicast:vector(packetBytes) ETV
attr interpolationmode none
attr recordingmode vector(packetBytes)
attr source ieee80211Unicast(packetSentToPeer)
attr title "packets sent: unicast, packetBytes"
vector 115 SatelliteNetwork.satellite1.wlan[0].mac.dcf packetSentToPeerMulticast:vector(packetBytes) ETV
attr interpolationmode none
attr recordingmode vector(packetBytes)
attr source ieee80211Multicast(packetSentToPeer)
attr title "packets sent: multicast, packetBytes"
vector 116 SatelliteNetwork.satellite1.wlan[0].mac.dcf packetSentToPeerBroadcast:vector(packetBytes) ETV
attr interpolationmode none
attr recordingmode vector(packetBytes)
attr source ieee80211Broadcast(packetSentToPeer)
attr title "packets sent: broadcast , packetBytes"
vector 117 SatelliteNetwork.satellite1.wlan[0].mac.dcf packetSentToPeerWithRetry:vector(packetBytes) ETV
attr interpolationmode none
attr recordingmode vector(packetBytes)
attr source ieee80211Retry(packetSentToPeer)
attr title "packets sent: with retry, packetBytes"
vector 118 SatelliteNetwork.satellite1.wlan[0].mac.dcf packetSentToPeerWithoutRetry:vector(packetBytes) ETV
attr interpolationmode none
attr recordingmode vector(packetBytes)
attr source ieee80211NotRetry(packetSentToPeer)
attr title "packets sent: without retry, packetBytes"
vector 119 SatelliteNetwork.satellite1.wlan[0].mac.dcf packetReceivedFromPeer:vector(packetBytes) ETV
attr interpolationmode none
attr recordingmode vector(packetBytes)
attr title "packets received, packetBytes"
vector 120 SatelliteNetwork.satellite1.wlan[0].mac.dcf packetReceivedFromPeerUnicast:vector(packetBytes) ETV
attr interpolationmode none
attr recordingmode vector(packetBytes)
attr source ieee80211Unicast(packetReceivedFromPeer)
attr title "packets received: unicast, packetBytes"
vector 121 SatelliteNetwork.satellite1.wlan[0].mac.dcf packetReceivedFromPeerMulticast:vector(packetBytes) ETV
attr interpolationmode none
attr recordingmode vector(packetBytes)
attr source ieee80211Multicast(packetReceivedFromPeer)
attr title "packets received: multicast, packetBytes"
vector 122 SatelliteNetwork.satellite1.wlan[0].mac.dcf packetReceivedFromPeerBroadcast:vector(packetBytes) ETV
attr interpolationmode none
attr recordingmode vector(packetBytes)
attr source ieee80211Broadcast(packetReceivedFromPeer)
attr title "packets received: broadcast, packetBytes"
vector 123 SatelliteNetwork.satellite1.wlan[0].mac.dcf packetReceivedFromPeerWithRetry:vector(packetBytes) ETV
attr interpolationmode none
attr recordingmode vector(packetBytes)
attr source ieee80211Retry(packetReceivedFromPeer)
attr title "packets received: with retry, packetBytes"
vector 124 SatelliteNetwork.satellite1.wlan[0].mac.dcf packetReceivedFromPeerWithoutRetry:vector(packetBytes) ETV
attr interpolationmode none
attr recordingmode vector(packetBytes)
attr source ieee80211NotRetry(packetReceivedFromPeer)
attr title "packets received: without retry, packetBytes"
vector 125 SatelliteNetwork.satellite1.wlan[0].mac.dcf packetDrop:vector(packetBytes) ETV
attr interpolationmode none
attr recordingmode vector(packetBytes)
attr source packetDropped
attr title "packet drops, packetBytes"
vector 126 SatelliteNetwork.satellite1.wlan[0].mac.dcf packetDropNotAddressedToUs:vector(packetBytes) ETV
attr interpolationmode none
attr recordingmode vector(packetBytes)
attr source packetDropReasonIsNotAddressedToUs(packetDropped)
attr title "packet drops: not addressed to us, packetBytes"
vector 127 SatelliteNetwork.satellite1.wlan[0].mac.dcf packetDropQueueOverflow:vector(packetBytes) ETV
attr interpolationmode none
attr recordingmode vector(packetBytes)
attr source packetDropReasonIsQueueOverflow(packetDropped)
attr title "packet drops: queue overflow, packetBytes"
vector 128 SatelliteNetwork.satellite1.wlan[0].mac.dcf packetDropRetryLimitReached:vector(packetBytes) ETV
attr interpolationmode none
attr recordingmode vector(packetBytes)
attr source packetDropReasonIsRetryLimitReached(packetDropped)
attr title "packet drops: retry limit reached, packetBytes"
vector 129 SatelliteNetwork.satellite1.wlan[0].mac.dcf frameSequenceActive:vector ETV
attr autoWarmupFilter false
attr interpolationmode sample-hold
attr recordingmode vector
attr source warmup(count(frameSequenceStarted)-count(frameSequenceFinished))
attr title "frame sequence active"
vector 130 SatelliteNetwork.satellite1.wlan[0].mac.dcf datarateSelected:vector ETV
attr interpolationmode none
attr recordingmode vector
attr title "datarates selected"
vector 131 SatelliteNetwork.satellite1.wlan[0].mac.rx nav:vector ETV
attr interpolationmode linear
attr recordingmode vector
attr source navChanged
attr title "network allocation vector"
vector 132 SatelliteNetwork.satellite1.wlan[0].mac packetSentToUpper:vector(packetBytes) ETV
attr interpolationmode none
attr recordingmode vector(packetBytes)
attr title "packets sent to upper layer, packetBytes"
vector 133 SatelliteNetwork.satellite1.wlan[0].mac packetSentToLower:vector(packetBytes) ETV
attr interpolationmode none
attr recordingmode vector(packetBytes)
attr title "packets sent to lower layer, packetBytes"
vector 134 SatelliteNetwork.satellite1.wlan[0].mac packetReceivedFromUpper:vector(packetBytes) ETV
attr interpolationmode none
attr recordingmode vector(packetBytes)
attr title "packets received from upper layer, packetBytes"
vector 135 SatelliteNetwork.satellite1.wlan[0].mac packetReceivedFromLower:vector(packetBytes) ETV
attr interpolationmode none
attr recordingmode vector(packetBytes)
attr title "packets received from lower layer, packetBytes"
vector 136 SatelliteNetwork.satellite1.wlan[0].mac packetDrop:vector(packetBytes) ETV
attr interpolationmode none
attr recordingmode vector(packetBytes)
attr source packetDropped
attr title "packet drops, packetBytes"
vector 137 SatelliteNetwork.satellite1.wlan[0].mac packetDropIncorrectlyReceived:vector(packetBytes) ETV
attr interpolationmode none
attr recordingmode vector(packetBytes)
attr source packetDropReasonIsIncorrectlyReceived(packetDropped)
attr title "packet drops: incorrectly received, packetBytes"
vector 138 SatelliteNetwork.satellite1.wlan[0].mac packetDropNotAddressedToUs:vector(packetBytes) ETV
attr interpolationmode none
attr recordingmode vector(packetBytes)
attr source packetDropReasonIsNotAddressedToUs(packetDropped)
attr title "packet drops: not addressed to us, packetBytes"
vector 139 SatelliteNetwork.satellite1.wlan[0].mac packetDropQueueOverflow:vector(packetBytes) ETV
attr interpolationmode none
attr recordingmode vector(packetBytes)
attr source packetDropReasonIsQueueOverflow(packetDropped)
attr title "packet drops: queue overflow, packetBytes"
vector 140 SatelliteNetwork.satellite1.wlan[0].mac packetDropRetryLimitReached:vector(packetBytes) ETV
attr interpolationmode none
attr recordingmode vector(packetBytes)
attr source packetDropReasonIsRetryLimitReached(packetDropped)
attr title "packet drops: retry limit reached, packetBytes"
vector 141 SatelliteNetwork.satellite1.wlan[0].mac packetDropDuplicateDetected:vector(packetBytes) ETV
attr interpolationmode none
attr recordingmode vector(packetBytes)
attr source packetDropReasonIsDuplicateDetected(packetDropped)
attr title "packet drops: duplicate detected, packetBytes"
vector 142 SatelliteNetwork.satellite1.wlan[0].mac packetDropOther:vector(packetBytes) ETV
attr interpolationmode none
attr recordingmode vector(packetBytes)
attr source packetDropReasonIsOther(packetDropped)
attr title "packet drops: other, packetBytes"
vector 143 SatelliteNetwork.satellite1.wlan[0].radio radioMode:vector ETV
attr interpolationmode sample-hold
attr recordingmode vector
attr source radioModeChanged
attr title "Radio mode"
vector 144 SatelliteNetwork.satellite1.wlan[0].radio receptionState:vector ETV
attr interpolationmode sample-hold
attr recordingmode vector
attr source receptionStateChanged
attr title "Radio reception state"
vector 145 SatelliteNetwork.satellite1.wlan[0].radio transmissionState:vector ETV
attr interpolationmode sample-hold
attr recordingmode vector
attr source transmissionStateChanged
attr title "Radio transmission state"
vector 146 SatelliteNetwork.satellite1.wlan[0].radio radioChannel:vector ETV
attr interpolationmode sample-hold
attr recordingmode vector
attr source radioChannelChanged
attr title "Radio channel"
vector 147 SatelliteNetwork.satellite1.wlan[0] packetDropInterfaceDown:vector(packetBytes) ETV
attr interpolationmode none
attr recordingmode vector(packetBytes)
attr source packetDropReasonIsInterfaceDown(packetDropped)
attr title "packet drops: interface down, packetBytes"
vector 148 SatelliteNetwork.satellite1.wlan[0] packetDropNoCarrier:vector(packetBytes) ETV
attr interpolationmode none
attr recordingmode vector(packetBytes)
attr source packetDropReasonIsNoCarrier(packetDropped)
attr title "packet drops: no carrier, packetBytes"
vector 149 SatelliteNetwork.satellite1.ipv4.ip packetDropAddressResolutionFailed:vector(packetBytes) ETV
attr interpolationmode none
attr recordingmode vector(packetBytes)
attr source packetDropReasonIsAddressResolutionFailed(packetDropped)
attr title "packet drop: address resolution failed, packetBytes"
vector 150 SatelliteNetwork.satellite1.ipv4.ip packetDropHopLimitReached:vector(packetBytes) ETV
attr interpolationmode none
attr recordingmode vector(packetBytes)
attr source packetDropReasonIsHopLimitReached(packetDropped)
attr title "packet drop: hop limit reached, packetBytes"
vector 151 SatelliteNetwork.satellite1.ipv4.ip packetDropForwardingDisabled:vector(packetBytes) ETV
attr interpolationmode none
attr recordingmode vector(packetBytes)
attr source packetDropReasonIsForwardingDisabled(packetDropped)
attr title "packet drop: forwarding disabled, packetBytes"
vector 152 SatelliteNetwork.satellite1.ipv4.ip packetDropNoInterfaceFound:vector(packetBytes) ETV
attr interpolationmode none
attr recordingmode vector(packetBytes)
attr source packetDropReasonIsNoInterfaceFound(packetDropped)
attr title "packet drop: no interface found, packetBytes"
vector 153 SatelliteNetwork.satellite1.ipv4.ip packetDropNoRouteFound:vector(packetBytes) ETV
attr interpolationmode none
attr recordingmode vector(packetBytes)
attr source packetDropReasonIsNoRouteFound(packetDropped)
attr title "packet drop: no route found, packetBytes"
vector 154 SatelliteNetwork.satellite1.ipv4.ip packetDropUndefined:vector(packetBytes) ETV
attr interpolationmode none
attr recordingmode vector(packetBytes)
attr source packetDropReasonIsUndefined(packetDropped)
attr title "packet drop: undefined, packetBytes"
vector 155 SatelliteNetwork.satellite1.udp packetSent:vector(packetBytes) ETV
attr interpolationmode none
attr recordingmode vector(packetBytes)
attr source packetSent
attr title "packets sent, packetBytes"
vector 156 SatelliteNetwork.satellite1.udp packetReceived:vector(packetBytes) ETV
attr interpolationmode none
attr recordingmode vector(packetBytes)
attr source packetReceived
attr title "packets received, packetBytes"
vector 157 SatelliteNetwork.satellite1.udp passedUpPk:vector(count) ETV
attr interpolationmode none
attr recordingmode vector(count)
attr source packetSentToUpper
attr title "packets passed up, count"
vector 158 SatelliteNetwork.satellite1.udp droppedPkWrongPort:vector(count) ETV
attr interpolationmode none
attr recordingmode vector(count)
attr source packetDropReasonIsNoPortFound(packetDropped)
attr title "packets dropped (wrong port), count"
vector 159 SatelliteNetwork.satellite1.udp droppedPkBadChecksum:vector(count) ETV
attr interpolationmode none
attr recordingmode vector(count)
attr source packetDropReasonIsIncorrectlyReceived(packetDropped)
attr title "packets dropped (checksum error), count"
vector 160 SatelliteNetwork.satellite1.app[1].source.provider[0] packetLengths:vector ETV
attr interpolationmode none
attr recordingmode vector
attr source packetLength(packetPulled)
attr title "packet lengths"
attr unit b
vector 161 SatelliteNetwork.satellite1.app[1].source.provider[0] dataRate:vector ETV
attr interpolationmode linear
attr recordingmode vector
attr source throughput(packetPulled)
attr title "data rate"
attr unit bps
vector 162 SatelliteNetwork.satellite1.app[1].source.provider[1] packetLengths:vector ETV
attr interpolationmode none
attr recordingmode vector
attr source packetLength(packetPulled)
attr title "packet lengths"
attr unit b
vector 163 SatelliteNetwork.satellite1.app[1].source.provider[1] dataRate:vector ETV
attr interpolationmode linear
attr recordingmode vector
attr source throughput(packetPulled)
attr title "data rate"
attr unit bps
vector 164 SatelliteNetwork.satellite1.app[1].source.server[0] incomingPacketLengths:vector ETV
attr interpolationmode none
attr recordingmode vector
attr source packetLength(packetPulled)
attr title "incoming packet lengths"
attr unit b
vector 165 SatelliteNetwork.satellite1.app[1].source.server[0] incomingDataRate:vector ETV
attr interpolationmode linear
attr recordingmode vector
attr source throughput(packetPulled)
attr title "incoming datarate"
attr unit bps
vector 166 SatelliteNetwork.satellite1.app[1].source.server[0] outgoingPacketLengths:vector ETV
attr interpolationmode none
attr recordingmode vector
attr source packetLength(packetPushed)
attr title "outgoing packet lengths"
attr unit b
vector 167 SatelliteNetwork.satellite1.app[1].source.server[0] outgoingDataRate:vector ETV
attr interpolationmode linear
attr recordingmode vector
attr source throughput(packetPushed)
attr title "outgoing datarate"
attr unit bps
vector 168 SatelliteNetwork.satellite1.app[1].source.server[0] numTokens:vector ETV
attr interpolationmode sample-hold
attr recordingmode vector
attr source "sum(tokensAdded) - sum(tokensRemoved)"
attr title "number of tokens"
attr unit tk
vector 169 SatelliteNetwork.satellite1.app[1].source.server[1] incomingPacketLengths:vector ETV
attr interpolationmode none
attr recordingmode vector
attr source packetLength(packetPulled)
attr title "incoming packet lengths"
attr unit b
vector 170 SatelliteNetwork.satellite1.app[1].source.server[1] incomingDataRate:vector ETV
attr interpolationmode linear
attr recordingmode vector
attr source throughput(packetPulled)
attr title "incoming datarate"
attr unit bps
vector 171 SatelliteNetwork.satellite1.app[1].source.server[1] outgoingPacketLengths:vector ETV
attr interpolationmode none
attr recordingmode vector
attr source packetLength(packetPushed)
attr title "outgoing packet lengths"
attr unit b
vector 172 SatelliteNetwork.satellite1.app[1].source.server[1] outgoingDataRate:vector ETV
attr interpolationmode linear
attr recordingmode vector
attr source throughput(packetPushed)
attr title "outgoing datarate"
attr unit bps
vector 173 SatelliteNetwork.satellite1.app[1].source.server[1] numTokens:vector ETV
attr interpolationmode sample-hold
attr recordingmode vector
attr source "sum(tokensAdded) - sum(tokensRemoved)"
attr title "number of tokens"
attr unit tk
vector 174 SatelliteNetwork.satellite1.app[1].source.multiplexer packetLengths:vector ETV
attr interpolationmode none
attr recordingmode vector
attr source "packetLength(merge(packetPushed, packetPulled))"
attr title "packet lengths"
attr unit b
vector 175 SatelliteNetwork.satellite1.app[1].source.multiplexer dataRate:vector ETV
attr interpolationmode linear
attr recordingmode vector
attr source "throughput(merge(packetPushed, packetPulled))"
attr title "data rate"
attr unit bps
vector 176 SatelliteNetwork.satellite1.app[1].source.tokenGenerator numTokensCreated:vector ETV
attr interpolationmode none
attr recordingmode vector
attr source tokensCreated
attr title "number of created tokens"
attr unit tk
vector 177 SatelliteNetwork.satellite1.app[1].sink.queue queueLength:vector ETV
attr autoWarmupFilter false
attr interpolationmode sample-hold
attr recordingmode vector
attr source "warmup(atomic(constant0(packetPushEnded) + count(packetPushStarted) - count(packetPulled) - count(packetRemoved) - count(packetDropped)))"
attr title "queue length"
attr unit pk
vector 178 SatelliteNetwork.satellite1.app[1].sink.queue queueBitLength:vector ETV
attr autoWarmupFilter false
attr interpolationmode sample-hold
attr recordingmode vector
attr source "warmup(atomic(constant0(packetPushEnded) + sum(packetLength(packetPushStarted)) - sum(packetLength(packetPulled)) - sum(packetLength(packetRemoved)) - sum(packetLength(packetDropped))))"
attr title "queue bit length"
attr unit b
vector 179 SatelliteNetwork.satellite1.app[1].sink.queue queueingTime:vector ETV
attr interpolationmode none
attr recordingmode vector
attr source queueingTime(packetPulled)
attr title "queueing times"
attr unit s
vector 180 SatelliteNetwork.satellite1.app[1].sink.queue incomingPacketLengths:vector ETV
attr interpolationmode none
attr recordingmode vector
attr source packetLength(packetPushStarted)
attr title "incoming packet lengths"
attr unit b
vector 181 SatelliteNetwork.satellite1.app[1].sink.queue incomingDataRate:vector ETV
attr interpolationmode linear
attr recordingmode vector
attr source throughput(packetPushStarted)
attr title "incoming datarate"
attr unit bps
vector 182 SatelliteNetwork.satellite1.app[1].sink.queue outgoingPacketLengths:vector ETV
attr interpolationmode none
attr recordingmode vector
attr source packetLength(packetPulled)
attr title "outgoing packet lengths"
attr unit b
vector 183 SatelliteNetwork.satellite1.app[1].sink.queue outgoingDataRate:vector ETV
attr interpolationmode linear
attr recordingmode vector
attr source throughput(packetPulled)
attr title "outgoing datarate"
attr unit bps
vector 184 SatelliteNetwork.satellite1.app[1].sink.queue droppedPacketLengthsQueueOverflow:vector ETV
attr interpolationmode none
attr recordingmode vector
attr source packetLength(packetDropReasonIsQueueOverflow(packetDropped))
attr title "dropped packet lengths: queue overflow"
attr unit b
vector 185 SatelliteNetwork.satellite1.app[1].sink.queue flowQueueingTime:vector ETV
attr interpolationmode none
attr recordingmode vector
attr source queueingTime(demuxFlow(packetPulled))
attr title "flow queueing times"
attr unit s
vector 186 SatelliteNetwork.satellite1.app[1].sink.queue flowIncomingDataRate:vector ETV
attr interpolationmode linear
attr recordingmode vector
attr source throughput(flowPacketLength(demuxFlow(packetPushStarted)))
attr title "flow specific incoming data rate"
attr unit bps
vector 187 SatelliteNetwork.satellite1.app[1].sink.queue flowOutgoingDataRate:vector ETV
attr interpolationmode linear
attr recordingmode vector
attr source throughput(flowPacketLength(demuxFlow(packetPulled)))
attr title "flow specific outgoing data rate"
attr unit bps
vector 188 SatelliteNetwork.satellite1.app[1].sink.server incomingPacketLengths:vector ETV
attr interpolationmode none
attr recordingmode vector
attr source packetLength(packetPulled)
attr title "incoming packet lengths"
attr unit b
vector 189 SatelliteNetwork.satellite1.app[1].sink.server incomingDataRate:vector ETV
attr interpolationmode linear
attr recordingmode vector
attr source throughput(packetPulled)
attr title "incoming datarate"
attr unit bps
vector 190 SatelliteNetwork.satellite1.app[1].sink.server outgoingPacketLengths:vector ETV
attr interpolationmode none
attr recordingmode vector
attr source packetLength(packetPushed)
attr title "outgoing packet lengths"
attr unit b
vector 191 SatelliteNetwork.satellite1.app[1].sink.server outgoingDataRate:vector ETV
attr interpolationmode linear
attr recordingmode vector
attr source throughput(packetPushed)
attr title "outgoing datarate"
attr unit bps
vector 192 SatelliteNetwork.satellite1.app[1].sink.server numTokens:vector ETV
attr interpolationmode sample-hold
attr recordingmode vector
attr source "sum(tokensAdded) - sum(tokensRemoved)"
attr title "number of tokens"
attr unit tk
vector 193 SatelliteNetwork.satellite1.app[1].sink.classifier packetLengths:vector ETV
attr interpolationmode none
attr recordingmode vector
attr source packetLength(packetPushed)
attr title "packet lengths"
attr unit b
vector 194 SatelliteNetwork.satellite1.app[1].sink.classifier dataRate:vector ETV
attr interpolationmode linear
attr recordingmode vector
attr source throughput(packetPushed)
attr title "data rate"
attr unit bps
vector 195 SatelliteNetwork.satellite1.app[1].sink.tokenGenerator[0] numTokensCreated:vector ETV
attr interpolationmode none
attr recordingmode vector
attr source tokensCreated
attr title "number of created tokens"
attr unit tk
vector 196 SatelliteNetwork.satellite1.app[1].sink.tokenGenerator[1] numTokensCreated:vector ETV
attr interpolationmode none
attr recordingmode vector
attr source tokensCreated
attr title "number of created tokens"
attr unit tk
vector 197 SatelliteNetwork.satellite1.app[1].io packetSent:vector(packetBytes) ETV
attr interpolationmode none
attr recordingmode vector(packetBytes)
attr source packetSent
attr title "packets sent, packetBytes"
vector 198 SatelliteNetwork.satellite1.app[1].io packetReceived:vector(packetBytes) ETV
attr interpolationmode none
attr recordingmode vector(packetBytes)
attr source packetReceived
attr title "packets received, packetBytes"
vector 199 SatelliteNetwork.satellite1.app[2].source packetLengths:vector ETV
attr interpolationmode none
attr recordingmode vector
attr source packetLength(packetPushed)
attr title "packet lengths"
attr unit b
vector 200 SatelliteNetwork.satellite1.app[2].source dataRate:vector ETV
attr interpolationmode linear
attr recordingmode vector
attr source throughput(packetPushed)
attr title "data rate"
attr unit bps
vector 201 SatelliteNetwork.satellite1.app[2].sink droppedPacketLengths:vector ETV
attr interpolationmode none
attr recordingmode vector
attr source packetLength(packetDropped)
attr title "dropped packet lengths"
attr unit b
vector 202 SatelliteNetwork.satellite1.app[2].sink droppedDataRate:vector ETV
attr interpolationmode linear
attr recordingmode vector
attr source throughput(packetDropped)
attr title "dropped data rate"
attr unit bps
vector 203 SatelliteNetwork.satellite1.app[2].sink packetLengths:vector ETV
attr interpolationmode none
attr recordingmode vector
attr source packetLength(packetPushed)
attr title "packet lengths"
attr unit b
vector 204 SatelliteNetwork.satellite1.app[2].sink dataRate:vector ETV
attr interpolationmode linear
attr recordingmode vector
attr source throughput(packetPushed)
attr title "data rate"
attr unit bps
vector 205 SatelliteNetwork.satellite1.app[2].sink meanBitLifeTimePerPacket:vector ETV
attr interpolationmode none
attr recordingmode vector
attr source weightedMeanPerGroup(groupRegionsPerPacket(lifeTimePerRegion(packetPushed)))
attr title "mean bit life time per packet"
attr unit s
vector 206 SatelliteNetwork.satellite1.app[2].sink packetJitter:vector ETV
attr interpolationmode none
attr recordingmode vector
attr source jitter(weightedMeanPerGroup(groupRegionsPerPacket(lifeTimePerRegion(packetPushed))))
attr title "packet jitter"
attr unit s
vector 207 SatelliteNetwork.satellite1.app[2].sink packetDelayDifferenceToMean:vector ETV
attr interpolationmode none
attr recordingmode vector
attr source differenceToMean(weightedMeanPerGroup(groupRegionsPerPacket(lifeTimePerRegion(packetPushed))))
attr title "packet delay difference to mean"
attr unit s
vector 208 SatelliteNetwork.satellite1.app[2].sink packetDelayVariation:vector ETV
attr recordingmode vector
attr source stddev(weightedMeanPerGroup(groupRegionsPerPacket(lifeTimePerRegion(packetPushed))))
attr title "packet delay variation"
attr unit s
vector 209 SatelliteNetwork.satellite1 coordX:vector ETV
attr interpolationmode linear
attr recordingmode vector
attr source xCoord(mobilityPos(mobilityStateChanged))
attr title "coord X"
vector 210 SatelliteNetwork.satellite1 coordY:vector ETV
attr interpolationmode linear
attr recordingmode vector
attr source yCoord(mobilityPos(mobilityStateChanged))
attr title "coord Y"
vector 211 SatelliteNetwork.satellite1 coordZ:vector ETV
attr interpolationmode linear
attr recordingmode vector
attr source zCoord(mobilityPos(mobilityStateChanged))
attr title "coord Z"
vector 212 SatelliteNetwork.satellite2.lo[0].lo rcvdPkFromHl:vector(packetBytes) ETV
attr interpolationmode none
attr recordingmode vector(packetBytes)
attr source packetReceivedFromUpper
attr title "packets received from higher layer, packetBytes"
vector 213 SatelliteNetwork.satellite2.lo[0].lo passedUpPk:vector(packetBytes) ETV
attr interpolationmode none
attr recordingmode vector(packetBytes)
attr source packetSentToUpper
attr title "packets passed to higher layer, packetBytes"
vector 214 SatelliteNetwork.satellite2.lo[0] packetDropInterfaceDown:vector(packetBytes) ETV
attr interpolationmode none
attr recordingmode vector(packetBytes)
attr source packetDropReasonIsInterfaceDown(packetDropped)
attr title "packet drops: interface down, packetBytes"
vector 215 SatelliteNetwork.satellite2.lo[0] packetDropNoCarrier:vector(packetBytes) ETV
attr interpolationmode none
attr recordingmode vector(packetBytes)
attr source packetDropReasonIsNoCarrier(packetDropped)
attr title "packet drops: no carrier, packetBytes"
vector 216 SatelliteNetwork.satellite2.wlan[0].mac.dcf.channelAccess.pendingQueue queueLength:vector ETV
attr autoWarmupFilter false
attr interpolationmode sample-hold
attr recordingmode vector
attr source "warmup(atomic(constant0(packetPushEnded) + count(packetPushStarted) - count(packetPulled) - count(packetRemoved) - count(packetDropped)))"
attr title "queue length"
attr unit pk
vector 217 SatelliteNetwork.satellite2.wlan[0].mac.dcf.channelAccess.pendingQueue queueBitLength:vector ETV
attr autoWarmupFilter false
attr interpolationmode sample-hold
attr recordingmode vector
attr source "warmup(atomic(constant0(packetPushEnded) + sum(packetLength(packetPushStarted)) - sum(packetLength(packetPulled)) - sum(packetLength(packetRemoved)) - sum(packetLength(packetDropped))))"
attr title "queue bit length"
attr unit b
vector 218 SatelliteNetwork.satellite2.wlan[0].mac.dcf.channelAccess.pendingQueue queueingTime:vector ETV
attr interpolationmode none
attr recordingmode vector
attr source queueingTime(packetPulled)
attr title "queueing times"
attr unit s
vector 219 SatelliteNetwork.satellite2.wlan[0].mac.dcf.channelAccess.pendingQueue incomingPacketLengths:vector ETV
attr interpolationmode none
attr recordingmode vector
attr source packetLength(packetPushStarted)
attr title "incoming packet lengths"
attr unit b
vector 220 SatelliteNetwork.satellite2.wlan[0].mac.dcf.channelAccess.pendingQueue incomingDataRate:vector ETV
attr interpolationmode linear
attr recordingmode vector
attr source throughput(packetPushStarted)
attr title "incoming datarate"
attr unit bps
vector 221 SatelliteNetwork.satellite2.wlan[0].mac.dcf.channelAccess.pendingQueue outgoingPacketLengths:vector ETV
attr interpolationmode none
attr recordingmode vector
attr source packetLength(packetPulled)
attr title "outgoing packet lengths"
attr unit b
vector 222 SatelliteNetwork.satellite2.wlan[0].mac.dcf.channelAccess.pendingQueue outgoingDataRate:vector ETV
attr interpolationmode linear
attr recordingmode vector
attr source throughput(packetPulled)
attr title "outgoing datarate"
attr unit bps
vector 223 SatelliteNetwork.satellite2.wlan[0].mac.dcf.channelAccess.pendingQueue droppedPacketLengthsQueueOverflow:vector ETV
attr interpolationmode none
attr recordingmode vector
attr source packetLength(packetDropReasonIsQueueOverflow(packetDropped))
attr title "dropped packet lengths: queue overflow"
attr unit b
vector 224 SatelliteNetwork.satellite2.wlan[0].mac.dcf.channelAccess.pendingQueue flowQueueingTime:vector ETV
attr interpolationmode none
attr recordingmode vector
attr source queueingTime(demuxFlow(packetPulled))
attr title "flow queueing times"
attr unit s
vector 225 SatelliteNetwork.satellite2.wlan[0].mac.dcf.channelAccess.pendingQueue flowIncomingDataRate:vector ETV
attr interpolationmode linear
attr recordingmode vector
attr source throughput(flowPacketLength(demuxFlow(packetPushStarted)))
attr title "flow specific incoming data rate"
attr unit bps
vector 226 SatelliteNetwork.satellite2.wlan[0].mac.dcf.channelAccess.pendingQueue flowOutgoingDataRate:vector ETV
attr interpolationmode linear
attr recordingmode vector
attr source throughput(flowPacketLength(demuxFlow(packetPulled)))
attr title "flow specific outgoing data rate"
attr unit bps
vector 227 SatelliteNetwork.satellite2.wlan[0].mac.dcf.channelAccess.inProgressFrames queueingTime:vector ETV
attr interpolationmode none
attr recordingmode vector
attr source queueingTime(packetDequeued)
attr title "queueing times"
vector 228 SatelliteNetwork.satellite2.wlan[0].mac.dcf.channelAccess.inProgressFrames queueLength:vector ETV
attr autoWarmupFilter false
attr interpolationmode sample-hold
attr recordingmode vector
attr source "warmup(count(packetEnqueued) - count(packetDequeued))"
attr title "queue length"
vector 229 SatelliteNetwork.satellite2.wlan[0].mac.dcf.channelAccess.contention backoffPeriodGenerated:vector ETV
attr interpolationmode none
attr recordingmode vector
attr title "backoff periods"
vector 230 SatelliteNetwork.satellite2.wlan[0].mac.dcf.channelAccess.contention backoffActive:vector ETV
attr autoWarmupFilter false
attr interpolationmode sample-hold
attr recordingmode vector
attr source warmup(count(backoffStarted)-count(backoffStopped))
attr title "backoff active"
vector 231 SatelliteNetwork.satellite2.wlan[0].mac.dcf.channelAccess.contention stateChanged:vector ETV
attr enum IDLE,DEFER,IFS_AND_BACKOFF
attr interpolationmode none
attr recordingmode vector
attr title "contention state changed"
attr type enum
vector 232 SatelliteNetwork.satellite2.wlan[0].mac.dcf.recipientMacDataService packetDropDuplicateDetected:vector(packetBytes) ETV
attr interpolationmode none
attr recordingmode vector(packetBytes)
attr source packetDropReasonIsDuplicateDetected(packetDropped)
attr title "packet drops: duplicate detected, packetBytes"
vector 233 SatelliteNetwork.satellite2.wlan[0].mac.dcf.recoveryProcedure contentionWindowChanged:vector ETV
attr interpolationmode sample-hold
attr recordingmode vector
attr title "contention window"
vector 234 SatelliteNetwork.satellite2.wlan[0].mac.dcf packetSentToPeer:vector(packetBytes) ETV
attr interpolationmode none
attr recordingmode vector(packetBytes)
attr title "packets sent, packetBytes"
vector 235 SatelliteNetwork.satellite2.wlan[0].mac.dcf packetSentToPeerUnicast:vector(packetBytes) ETV
attr interpolationmode none
attr recordingmode vector(packetBytes)
attr source ieee80211Unicast(packetSentToPeer)
attr title "packets sent: unicast, packetBytes"
vector 236 SatelliteNetwork.satellite2.wlan[0].mac.dcf packetSentToPeerMulticast:vector(packetBytes) ETV
attr interpolationmode none
attr recordingmode vector(packetBytes)
attr source ieee80211Multicast(packetSentToPeer)
attr title "packets sent: multicast, packetBytes"
vector 237 SatelliteNetwork.satellite2.wlan[0].mac.dcf packetSentToPeerBroadcast:vector(packetBytes) ETV
attr interpolationmode none
attr recordingmode vector(packetBytes)
attr source ieee80211Broadcast(packetSentToPeer)
attr title "packets sent: broadcast , packetBytes"
vector 238 SatelliteNetwork.satellite2.wlan[0].mac.dcf packetSentToPeerWithRetry:vector(packetBytes) ETV
attr interpolationmode none
attr recordingmode vector(packetBytes)
attr source ieee80211Retry(packetSentToPeer)
attr title "packets sent: with retry, packetBytes"
vector 239 SatelliteNetwork.satellite2.wlan[0].mac.dcf packetSentToPeerWithoutRetry:vector(packetBytes) ETV
attr interpolationmode none
attr recordingmode vector(packetBytes)
attr source ieee80211NotRetry(packetSentToPeer)
attr title "packets sent: without retry, packetBytes"
vector 240 SatelliteNetwork.satellite2.wlan[0].mac.dcf packetReceivedFromPeer:vector(packetBytes) ETV
attr interpolationmode none
attr recordingmode vector(packetBytes)
attr title "packets received, packetBytes"
vector 241 SatelliteNetwork.satellite2.wlan[0].mac.dcf packetReceivedFromPeerUnicast:vector(packetBytes) ETV
attr interpolationmode none
attr recordingmode vector(packetBytes)
attr source ieee80211Unicast(packetReceivedFromPeer)
attr title "packets received: unicast, packetBytes"
vector 242 SatelliteNetwork.satellite2.wlan[0].mac.dcf packetReceivedFromPeerMulticast:vector(packetBytes) ETV
attr interpolationmode none
attr recordingmode vector(packetBytes)
attr source ieee80211Multicast(packetReceivedFromPeer)
attr title "packets received: multicast, packetBytes"
vector 243 SatelliteNetwork.satellite2.wlan[0].mac.dcf packetReceivedFromPeerBroadcast:vector(packetBytes) ETV
attr interpolationmode none
attr recordingmode vector(packetBytes)
attr source ieee80211Broadcast(packetReceivedFromPeer)
attr title "packets received: broadcast, packetBytes"
vector 244 SatelliteNetwork.satellite2.wlan[0].mac.dcf packetReceivedFromPeerWithRetry:vector(packetBytes) ETV
attr interpolationmode none
attr recordingmode vector(packetBytes)
attr source ieee80211Retry(packetReceivedFromPeer)
attr title "packets received: with retry, packetBytes"
vector 245 SatelliteNetwork.satellite2.wlan[0].mac.dcf packetReceivedFromPeerWithoutRetry:vector(packetBytes) ETV
attr interpolationmode none
attr recordingmode vector(packetBytes)
attr source ieee80211NotRetry(packetReceivedFromPeer)
attr title "packets received: without retry, packetBytes"
vector 246 SatelliteNetwork.satellite2.wlan[0].mac.dcf packetDrop:vector(packetBytes) ETV
attr interpolationmode none
attr recordingmode vector(packetBytes)
attr source packetDropped
attr title "packet drops, packetBytes"
vector 247 SatelliteNetwork.satellite2.wlan[0].mac.dcf packetDropNotAddressedToUs:vector(packetBytes) ETV
attr interpolationmode none
attr recordingmode vector(packetBytes)
attr source packetDropReasonIsNotAddressedToUs(packetDropped)
attr title "packet drops: not addressed to us, packetBytes"
vector 248 SatelliteNetwork.satellite2.wlan[0].mac.dcf packetDropQueueOverflow:vector(packetBytes) ETV
attr interpolationmode none
attr recordingmode vector(packetBytes)
attr source packetDropReasonIsQueueOverflow(packetDropped)
attr title "packet drops: queue overflow, packetBytes"
vector 249 SatelliteNetwork.satellite2.wlan[0].mac.dcf packetDropRetryLimitReached:vector(packetBytes) ETV
attr interpolationmode none
attr recordingmode vector(packetBytes)
attr source packetDropReasonIsRetryLimitReached(packetDropped)
attr title "packet drops: retry limit reached, packetBytes"
vector 250 SatelliteNetwork.satellite2.wlan[0].mac.dcf frameSequenceActive:vector ETV
attr autoWarmupFilter false
attr interpolationmode sample-hold
attr recordingmode vector
attr source warmup(count(frameSequenceStarted)-count(frameSequenceFinished))
attr title "frame sequence active"
vector 251 SatelliteNetwork.satellite2.wlan[0].mac.dcf datarateSelected:vector ETV
attr interpolationmode none
attr recordingmode vector
attr title "datarates selected"
vector 252 SatelliteNetwork.satellite2.wlan[0].mac.rx nav:vector ETV
attr interpolationmode linear
attr recordingmode vector
attr source navChanged
attr title "network allocation vector"
vector 253 SatelliteNetwork.satellite2.wlan[0].mac packetSentToUpper:vector(packetBytes) ETV
attr interpolationmode none
attr recordingmode vector(packetBytes)
attr title "packets sent to upper layer, packetBytes"
vector 254 SatelliteNetwork.satellite2.wlan[0].mac packetSentToLower:vector(packetBytes) ETV
attr interpolationmode none
attr recordingmode vector(packetBytes)
attr title "packets sent to lower layer, packetBytes"
vector 255 SatelliteNetwork.satellite2.wlan[0].mac packetReceivedFromUpper:vector(packetBytes) ETV
attr interpolationmode none
attr recordingmode vector(packetBytes)
attr title "packets received from upper layer, packetBytes"
vector 256 SatelliteNetwork.satellite2.wlan[0].mac packetReceivedFromLower:vector(packetBytes) ETV
attr interpolationmode none
attr recordingmode vector(packetBytes)
attr title "packets received from lower layer, packetBytes"
vector 257 SatelliteNetwork.satellite2.wlan[0].mac packetDrop:vector(packetBytes) ETV
attr interpolationmode none
attr recordingmode vector(packetBytes)
attr source packetDropped
attr title "packet drops, packetBytes"
vector 258 SatelliteNetwork.satellite2.wlan[0].mac packetDropIncorrectlyReceived:vector(packetBytes) ETV
attr interpolationmode none
attr recordingmode vector(packetBytes)
attr source packetDropReasonIsIncorrectlyReceived(packetDropped)
attr title "packet drops: incorrectly received, packetBytes"
vector 259 SatelliteNetwork.satellite2.wlan[0].mac packetDropNotAddressedToUs:vector(packetBytes) ETV
attr interpolationmode none
attr recordingmode vector(packetBytes)
attr source packetDropReasonIsNotAddressedToUs(packetDropped)
attr title "packet drops: not addressed to us, packetBytes"
vector 260 SatelliteNetwork.satellite2.wlan[0].mac packetDropQueueOverflow:vector(packetBytes) ETV
attr interpolationmode none
attr recordingmode vector(packetBytes)
attr source packetDropReasonIsQueueOverflow(packetDropped)
attr title "packet drops: queue overflow, packetBytes"
vector 261 SatelliteNetwork.satellite2.wlan[0].mac packetDropRetryLimitReached:vector(packetBytes) ETV
attr interpolationmode none
attr recordingmode vector(packetBytes)
attr source packetDropReasonIsRetryLimitReached(packetDropped)
attr title "packet drops: retry limit reached, packetBytes"
vector 262 SatelliteNetwork.satellite2.wlan[0].mac packetDropDuplicateDetected:vector(packetBytes) ETV
attr interpolationmode none
attr recordingmode vector(packetBytes)
attr source packetDropReasonIsDuplicateDetected(packetDropped)
attr title "packet drops: duplicate detected, packetBytes"
vector 263 SatelliteNetwork.satellite2.wlan[0].mac packetDropOther:vector(packetBytes) ETV
attr interpolationmode none
attr recordingmode vector(packetBytes)
attr source packetDropReasonIsOther(packetDropped)
attr title "packet drops: other, packetBytes"
vector 264 SatelliteNetwork.satellite2.wlan[0].radio radioMode:vector ETV
attr interpolationmode sample-hold
attr recordingmode vector
attr source radioModeChanged
attr title "Radio mode"
vector 265 SatelliteNetwork.satellite2.wlan[0].radio receptionState:vector ETV
attr interpolationmode sample-hold
attr recordingmode vector
attr source receptionStateChanged
attr title "Radio reception state"
vector 266 SatelliteNetwork.satellite2.wlan[0].radio transmissionState:vector ETV
attr interpolationmode sample-hold
attr recordingmode vector
attr source transmissionStateChanged
attr title "Radio transmission state"
vector 267 SatelliteNetwork.satellite2.wlan[0].radio radioChannel:vector ETV
attr interpolationmode sample-hold
attr recordingmode vector
attr source radioChannelChanged
attr title "Radio channel"
vector 268 SatelliteNetwork.satellite2.wlan[0] packetDropInterfaceDown:vector(packetBytes) ETV
attr interpolationmode none
attr recordingmode vector(packetBytes)
attr source packetDropReasonIsInterfaceDown(packetDropped)
attr title "packet drops: interface down, packetBytes"
vector 269 SatelliteNetwork.satellite2.wlan[0] packetDropNoCarrier:vector(packetBytes) ETV
attr interpolationmode none
attr recordingmode vector(packetBytes)
attr source packetDropReasonIsNoCarrier(packetDropped)
attr title "packet drops: no carrier, packetBytes"
vector 270 SatelliteNetwork.satellite2.ipv4.ip packetDropAddressResolutionFailed:vector(packetBytes) ETV
attr interpolationmode none
attr recordingmode vector(packetBytes)
attr source packetDropReasonIsAddressResolutionFailed(packetDropped)
attr title "packet drop: address resolution failed, packetBytes"
vector 271 SatelliteNetwork.satellite2.ipv4.ip packetDropHopLimitReached:vector(packetBytes) ETV
attr interpolationmode none
attr recordingmode vector(packetBytes)
attr source packetDropReasonIsHopLimitReached(packetDropped)
attr title "packet drop: hop limit reached, packetBytes"
vector 272 SatelliteNetwork.satellite2.ipv4.ip packetDropForwardingDisabled:vector(packetBytes) ETV
attr interpolationmode none
attr recordingmode vector(packetBytes)
attr source packetDropReasonIsForwardingDisabled(packetDropped)
attr title "packet drop: forwarding disabled, packetBytes"
vector 273 SatelliteNetwork.satellite2.ipv4.ip packetDropNoInterfaceFound:vector(packetBytes) ETV
attr interpolationmode none
attr recordingmode vector(packetBytes)
attr source packetDropReasonIsNoInterfaceFound(packetDropped)
attr title "packet drop: no interface found, packetBytes"
vector 274 SatelliteNetwork.satellite2.ipv4.ip packetDropNoRouteFound:vector(packetBytes) ETV
attr interpolationmode none
attr recordingmode vector(packetBytes)
attr source packetDropReasonIsNoRouteFound(packetDropped)
attr title "packet drop: no route found, packetBytes"
vector 275 SatelliteNetwork.satellite2.ipv4.ip packetDropUndefined:vector(packetBytes) ETV
attr interpolationmode none
attr recordingmode vector(packetBytes)
attr source packetDropReasonIsUndefined(packetDropped)
attr title "packet drop: undefined, packetBytes"
vector 276 SatelliteNetwork.satellite2.udp packetSent:vector(packetBytes) ETV
attr interpolationmode none
attr recordingmode vector(packetBytes)
attr source packetSent
attr title "packets sent, packetBytes"
vector 277 SatelliteNetwork.satellite2.udp packetReceived:vector(packetBytes) ETV
attr interpolationmode none
attr recordingmode vector(packetBytes)
attr source packetReceived
attr title "packets received, packetBytes"
vector 278 SatelliteNetwork.satellite2.udp passedUpPk:vector(count) ETV
attr interpolationmode none
attr recordingmode vector(count)
attr source packetSentToUpper
attr title "packets passed up, count"
vector 279 SatelliteNetwork.satellite2.udp droppedPkWrongPort:vector(count) ETV
attr interpolationmode none
attr recordingmode vector(count)
attr source packetDropReasonIsNoPortFound(packetDropped)
attr title "packets dropped (wrong port), count"
vector 280 SatelliteNetwork.satellite2.udp droppedPkBadChecksum:vector(count) ETV
attr interpolationmode none
attr recordingmode vector(count)
attr source packetDropReasonIsIncorrectlyReceived(packetDropped)
attr title "packets dropped (checksum error), count"
vector 281 SatelliteNetwork.satellite2.app[1].source.provider[0] packetLengths:vector ETV
attr interpolationmode none
attr recordingmode vector
attr source packetLength(packetPulled)
attr title "packet lengths"
attr unit b
vector 282 SatelliteNetwork.satellite2.app[1].source.provider[0] dataRate:vector ETV
attr interpolationmode linear
attr recordingmode vector
attr source throughput(packetPulled)
attr title "data rate"
attr unit bps
vector 283 SatelliteNetwork.satellite2.app[1].source.provider[1] packetLengths:vector ETV
attr interpolationmode none
attr recordingmode vector
attr source packetLength(packetPulled)
attr title "packet lengths"
attr unit b
vector 284 SatelliteNetwork.satellite2.app[1].source.provider[1] dataRate:vector ETV
attr interpolationmode linear
attr recordingmode vector
attr source throughput(packetPulled)
attr title "data rate"
attr unit bps
[...]
265	162	0.000994417057	2
265	169	0.001014416949	1
265	180	0.001448416913	3
265	185	0.001502416913	1
265	199	0.001514354067	3
265	206	0.001548354067	1
265	216	0.00165949245	3
265	228	0.00171349245	2
265	237	0.001853492289	1
265	246	0.002207492251	3
265	260	0.002361492251	2
265	262	0.002361492498	1
265	276	0.002635492219	3
265	281	0.002789492219	1
265	295	0.002801429496	3
265	302	0.002835429496	1
265	312	0.002945429496	3
265	317	0.003131429496	1
266	74	0.000320139003	1
266	75	0.000320139003	2
266	79	0.000374139003	1
266	80	0.000374139003	0
267	0	0	0
278	0	0	0
279	0	0	0
280	0	0	0
289	0	0	0
289	0	0	0
294	0	0	0
294	0	0	0
298	0	0	0
298	0	0	0
298	0	0	0
298	0	0	0
298	0	0	0
299	0	0	0
299	0	0	0
299	0	0	0
299	0	0	0
299	0	0	0
313	0	0	0
313	0	0	0
320	0	0	1504
330	0	0	450
330	35	0.00007	450.00000002613
330	38	0.000070012398	450.00000002614
330	38	0.000070071618	450.00000002619
330	38	0.00007009618	450.00000002621
330	38	0.000070123176	450.00000002623
330	38	0.000070147081	450.00000002624
330	38	0.000070171615	450.00000002626
330	38	0.000070198569	450.00000002628
330	38	0.000070222358	450.0000000263
330	38	0.000070247438	450.00000002632
330	38	0.000070273876	450.00000002634
330	38	0.000070298322	450.00000002636
330	38	0.000070323571	450.00000002638
330	38	0.000070348513	450.00000002639
330	38	0.000070373733	450.00000002641
330	38	0.000070397225	450.00000002643
330	38	0.000070420937	450.00000002645
330	38	0.000070446397	450.00000002647
330	38	0.00007047319	450.00000002649
330	38	0.00007049771	450.00000002651
330	38	0.000070522795	450.00000002653
330	38	0.000070549587	450.00000002655
330	38	0.000070576099	450.00000002657
330	38	0.000070601624	450.00000002658
330	38	0.00007062662	450.0000000266
330	38	0.000070652144	450.00000002662
330	38	0.00007067797	450.00000002664
330	38	0.000070703862	450.00000002666
330	38	0.000070731297	450.00000002668
330	38	0.000070761744	450.00000002671
330	38	0.00007079585	450.00000002673
330	38	0.000070823868	450.00000002675
330	38	0.000070849317	450.00000002677
330	38	0.000070873505	450.00000002679
330	38	0.00007090174	450.00000002681
330	38	0.000070930247	450.00000002683
330	38	0.00007095712	450.00000002685
330	38	0.000070981325	450.00000002687
330	39	0.000071007295	450.00000002689
330	39	0.000071052821	450.00000002693
330	39	0.000071094128	450.00000002696
330	39	0.000071137322	450.00000002699
330	39	0.000071176967	450.00000002702
330	39	0.000071217464	450.00000002705
330	39	0.000071255548	450.00000002708
330	39	0.000071293105	450.00000002711
330	39	0.000071332912	450.00000002714
330	39	0.000071369847	450.00000002717
330	39	0.000071409431	450.0000000272
330	39	0.000071452532	450.00000002723
330	39	0.000071492849	450.00000002726
330	39	0.000071530671	450.00000002729
330	41	0.000071571342	450.00000002732
330	41	0.000074808836	450.00000002985
330	41	0.000078235363	450.00000003264
330	44	0.000125000692	450.00000008333
330	58	0.000135537652	450.00000009798
330	61	0.000158205291	450.00000013349
330	67	0.000170139003	450.00000015439
330	75	0.000320139003	450.00000054661
330	78	0.00035301704	450.00000066465
330	80	0.000374139003	450.00000074656
330	95	0.000384740368	450.00000078947
330	104	0.000419341738	450.00000093785
330	108	0.000423702689	450.00000095746
330	112	0.000508740368	450.00000138036
330	112	0.000509128979	450.00000138247
330	118	0.000563341747	450.00000169255
330	132	0.000574278008	450.00000175891
330	135	0.000583148992	450.00000181367
330	140	0.0006092787	450.00000197984
330	149	0.000939815646	450.00000471069
330	156	0.000959815679	450.00000491331
330	161	0.000994242246	450.00000527209
330	162	0.000994417057	450.00000527395
330	169	0.001014416949	450.00000548822
330	174	0.001066614061	450.00000606755
330	179	0.001447815679	450.00001117957
330	179	0.001448188985	450.00001118534
330	182	0.001498381021	450.00001197411
330	185	0.001502416913	450.0000120387
330	198	0.001513353375	450.0000122146
330	206	0.001548354067	450.00001278613
330	211	0.001582901036	450.00001336307
330	215	0.001658890986	450.0000146769
330	215	0.001659282238	450.00001468383
330	222	0.001698891073	450.00001539323
330	228	0.00171349245	450.00001565897
330	230	0.00171432757	450.00001567423
330	234	0.001848520442	450.00001822415
330	237	0.001853492289	450.00001832231
330	245	0.002206891073	450.0000259753
330	248	0.002245952228	450.00002690294
330	252	0.002306890986	450.00002838264
330	260	0.002361492251	450.00002974211
330	262	0.002361492498	450.00002974212
330	267	0.002380899427	450.00003023297
330	275	0.002634891073	450.00003702747
330	275	0.002635271418	450.00003703816
330	278	0.002692032465	450.00003865087
330	281	0.002789492219	450.00004150009
330	294	0.002800428804	450.00004182614
330	302	0.002835429496	450.00004287819
330	307	0.002862173165	450.00004369085
330	311	0.002944428804	450.00004623819
330	311	0.002945041828	450.00004625744
330	314	0.003033426448	450.0000490756
330	317	0.003131429496	450.00005229787
331	0	0	300
331	35	0.00007	299.9972
331	38	0.000070012398	299.99719950408
331	38	0.000070071618	299.99719713528
331	38	0.00007009618	299.9971961528
331	38	0.000070123176	299.99719507296
331	38	0.000070147081	299.99719411676
331	38	0.000070171615	299.9971931354
331	38	0.000070198569	299.99719205724
331	38	0.000070222358	299.99719110568
331	38	0.000070247438	299.99719010248
331	38	0.000070273876	299.99718904496
331	38	0.000070298322	299.99718806712
331	38	0.000070323571	299.99718705716
331	38	0.000070348513	299.99718605948
331	38	0.000070373733	299.99718505068
331	38	0.000070397225	299.997184111
331	38	0.000070420937	299.99718316252
331	38	0.000070446397	299.99718214412
331	38	0.00007047319	299.9971810724
331	38	0.00007049771	299.9971800916
331	38	0.000070522795	299.9971790882
331	38	0.000070549587	299.99717801652
331	38	0.000070576099	299.99717695604
331	38	0.000070601624	299.99717593504
331	38	0.00007062662	299.9971749352
331	38	0.000070652144	299.99717391424
331	38	0.00007067797	299.9971728812
331	38	0.000070703862	299.99717184552
331	38	0.000070731297	299.99717074812
331	38	0.000070761744	299.99716953024
331	38	0.00007079585	299.997168166
331	38	0.000070823868	299.99716704528
331	38	0.000070849317	299.99716602732
331	38	0.000070873505	299.9971650598
331	38	0.00007090174	299.9971639304
331	38	0.000070930247	299.99716279012
331	38	0.00007095712	299.9971617152
331	38	0.000070981325	299.997160747
331	39	0.000071007295	299.9971597082
331	39	0.000071052821	299.99715788716
331	39	0.000071094128	299.99715623488
331	39	0.000071137322	299.99715450712
331	39	0.000071176967	299.99715292132
331	39	0.000071217464	299.99715130144
331	39	0.000071255548	299.99714977808
331	39	0.000071293105	299.9971482758
331	39	0.000071332912	299.99714668352
331	39	0.000071369847	299.99714520612
331	39	0.000071409431	299.99714362276
331	39	0.000071452532	299.99714189872
331	39	0.000071492849	299.99714028604
331	39	0.000071530671	299.99713877316
331	41	0.000071571342	299.99713714632
331	41	0.000074808836	299.99700764656
331	41	0.000078235363	299.99687058548
331	44	0.000125000692	299.99499997232
331	58	0.000135537652	299.99457849392
331	61	0.000158205291	299.99367178836
331	67	0.000170139003	299.99319443988
331	75	0.000320139003	299.9871944399
331	78	0.00035301704	299.98587931842
331	80	0.000374139003	299.9850344399
331	95	0.000384740368	299.98461038531
331	104	0.000419341738	299.98322633051
331	108	0.000423702689	299.98305189248
331	112	0.000508740368	299.97965038534
331	112	0.000509128979	299.9796348409
331	118	0.000563341747	299.9774663302
331	132	0.000574278008	299.97702887977
331	135	0.000583148992	299.97667404041
331	140	0.0006092787	299.97562885211
331	149	0.000939815646	299.96240737455
331	156	0.000959815679	299.96160737326
331	161	0.000994242246	299.96023031063
331	162	0.000994417057	299.96022331819
331	169	0.001014416949	299.95942332253
331	174	0.001066614061	299.95733543814
331	179	0.001447815679	299.94208737428
331	179	0.001448188985	299.94207244204
331	182	0.001498381021	299.94006476075
331	185	0.001502416913	299.93990332509
331	198	0.001513353375	299.93946586664
331	206	0.001548354067	299.93806583908
331	211	0.001582901036	299.93668396044
331	215	0.001658890986	299.93364436272
331	215	0.001659282238	299.93362871265
331	222	0.001698891073	299.9320443594
331	228	0.00171349245	299.93146030439
331	230	0.00171432757	299.93142689959
331	234	0.001848520442	299.92605918531
331	237	0.001853492289	299.92586031146
331	245	0.002206891073	299.91172436218
331	248	0.002245952228	299.91016191625
331	252	0.002306890986	299.90772436638
331	260	0.002361492251	299.9055403162
331	262	0.002361492498	299.90554030632
331	267	0.002380899427	299.90476402932
331	275	0.002634891073	299.89460436575
331	275	0.002635271418	299.89458915196
331	278	0.002692032465	299.89231871065
331	281	0.002789492219	299.88842032153
331	294	0.002800428804	299.88798285825
331	302	0.002835429496	299.88658283097
331	307	0.002862173165	299.88551308452
331	311	0.002944428804	299.88222285994
331	311	0.002945041828	299.88219833899
331	314	0.003033426448	299.87866295531
331	317	0.003131429496	299.87474283472
332	0	0	0
332	35	0.00007	0
332	38	0.000070012398	0
332	38	0.000070071618	0
332	38	0.00007009618	0
332	38	0.000070123176	0
332	38	0.000070147081	0
332	38	0.000070171615	0
332	38	0.000070198569	0
332	38	0.000070222358	0
332	38	0.000070247438	0
332	38	0.000070273876	0
332	38	0.000070298322	0
332	38	0.000070323571	0
332	38	0.000070348513	0
332	38	0.000070373733	0
332	38	0.000070397225	0
332	38	0.000070420937	0
332	38	0.000070446397	0
332	38	0.00007047319	0
332	38	0.00007049771	0
332	38	0.000070522795	0
332	38	0.000070549587	0
332	38	0.000070576099	0
332	38	0.000070601624	0
332	38	0.00007062662	0
332	38	0.000070652144	0
332	38	0.00007067797	0
332	38	0.000070703862	0
332	38	0.000070731297	0
332	38	0.000070761744	0
332	38	0.00007079585	0
332	38	0.000070823868	0
332	38	0.000070849317	0
332	38	0.000070873505	0
332	38	0.00007090174	0
332	38	0.000070930247	0
332	38	0.00007095712	0
332	38	0.000070981325	0
332	39	0.000071007295	0
332	39	0.000071052821	0
332	39	0.000071094128	0
332	39	0.000071137322	0
332	39	0.000071176967	0
332	39	0.000071217464	0
332	39	0.000071255548	0
332	39	0.000071293105	0
332	39	0.000071332912	0
332	39	0.000071369847	0
332	39	0.000071409431	0
332	39	0.000071452532	0
332	39	0.000071492849	0
332	39	0.000071530671	0
332	41	0.000071571342	0
332	41	0.000074808836	0
332	41	0.000078235363	0
332	44	0.000125000692	0
332	58	0.000135537652	0
332	61	0.000158205291	0
332	67	0.000170139003	0
332	75	0.000320139003	0
332	78	0.00035301704	0
332	80	0.000374139003	0
332	95	0.000384740368	0
332	104	0.000419341738	0
332	108	0.000423702689	0
332	112	0.000508740368	0
332	112	0.000509128979	0
332	118	0.000563341747	0
332	132	0.000574278008	0
332	135	0.000583148992	0
332	140	0.0006092787	0
332	149	0.000939815646	0
332	156	0.000959815679	0
332	161	0.000994242246	0
332	162	0.000994417057	0
332	169	0.001014416949	0
332	174	0.001066614061	0
332	179	0.001447815679	0
332	179	0.001448188985	0
332	182	0.001498381021	0
332	185	0.001502416913	0
332	198	0.001513353375	0
332	206	0.001548354067	0
332	211	0.001582901036	0
332	215	0.001658890986	0
332	215	0.001659282238	0
332	222	0.001698891073	0
332	228	0.00171349245	0
332	230	0.00171432757	0
332	234	0.001848520442	0
332	237	0.001853492289	0
332	245	0.002206891073	0
332	248	0.002245952228	0
332	252	0.002306890986	0
332	260	0.002361492251	0
332	262	0.002361492498	0
332	267	0.002380899427	0
332	275	0.002634891073	0
332	275	0.002635271418	0
332	278	0.002692032465	0
332	281	0.002789492219	0
332	294	0.002800428804	0
332	302	0.002835429496	0
332	307	0.002862173165	0
332	311	0.002944428804	0
332	311	0.002945041828	0
332	314	0.003033426448	0
332	317	0.003131429496	0
337	0	0	0
337	0	0	0
337	0	0	0
337	0	0	0
337	0	0	0
337	53	0.000125537652	1
337	90	0.000374740368	2
337	110	0.000508740368	1
337	110	0.000508740368	0
338	0	0	0
338	0	0	0
338	0	0	0
338	0	0	0
338	0	0	0
338	53	0.000125537652	640
338	90	0.000374740368	1280
338	110	0.000508740368	640
338	110	0.000508740368	0
339	110	0.000508740368	0.000383202716
339	110	0.000508740368	0.000134
340	53	0.000125537652	640
340	90	0.000374740368	640
342	110	0.000508740368	640
342	110	0.000508740368	640
348	143	0.000609815646	0.000101075278
349	0	0	0
349	0	0	0
349	110	0.000508740368	1
349	110	0.000508740368	2
349	143	0.000609815646	1
350	53	0.000125537652	7
350	143	0.000609815646	14
350	173	0.001048815646	24
350	234	0.001767890986	25
350	270	0.002415890986	72
351	0	0	0
351	0	0	0
351	53	0.000125537652	1
351	57	0.000135537652	0
351	65	0.000169537652	1
351	77	0.000320740368	0
351	83	0.000374740368	1
351	94	0.000384740368	0
351	102	0.000418740368	1
351	109	0.000508740368	0
351	143	0.000609815646	1
351	146	0.000939815646	0
351	173	0.001048815646	1
351	200	0.001514890986	0
351	208	0.001548890986	1
351	212	0.001658890986	0
351	234	0.001767890986	1
351	249	0.002306890986	0
351	270	0.002415890986	1
351	296	0.002801966377	0
351	304	0.002835966377	1
351	313	0.002945966373	0
351	319	0.003131966373	1
352	0	0	0
352	0	0	0
352	40	0.000071537652	0
352	40	0.000071537652	0
352	46	0.000125537652	0
352	46	0.000125537652	0
352	53	0.000125537652	0
352	53	0.000125537652	2
352	57	0.000135537652	2
352	57	0.000135537652	1
352	65	0.000169537652	1
352	65	0.000169537652	2
352	77	0.000320740368	2
352	77	0.000320740368	1
352	83	0.000374740368	1
352	83	0.000374740368	2
352	94	0.000384740368	2
352	94	0.000384740368	1
352	102	0.000418740368	1
352	102	0.000418740368	2
352	109	0.000508740368	2
352	109	0.000508740368	0
352	111	0.000508740368	0
352	111	0.000508740368	0
352	142	0.000609815646	0
352	142	0.000609815646	0
352	143	0.000609815646	0
352	143	0.000609815646	2
352	146	0.000939815646	2
352	146	0.000939815646	0
352	148	0.000939815646	0
352	148	0.000939815646	0
352	172	0.001037815646	0
352	172	0.001037815646	0
352	173	0.001048815646	0
352	173	0.001048815646	2
352	200	0.001514890986	2
352	200	0.001514890986	1
352	208	0.001548890986	1
352	208	0.001548890986	2
352	212	0.001658890986	2
352	212	0.001658890986	0
352	214	0.001658890986	0
352	214	0.001658890986	0
352	233	0.001756890986	0
352	233	0.001756890986	0
352	234	0.001767890986	0
352	234	0.001767890986	2
352	249	0.002306890986	2
352	249	0.002306890986	0
352	251	0.002306890986	0
352	251	0.002306890986	0
352	268	0.002404890986	0
352	268	0.002404890986	0
352	270	0.002415890986	0
352	270	0.002415890986	2
352	296	0.002801966377	2
352	296	0.002801966377	1
352	304	0.002835966377	1
352	304	0.002835966377	2
352	313	0.002945966373	2
352	313	0.002945966373	1
352	319	0.003131966373	1
352	319	0.003131966373	2
354	0	0	31
354	173	0.001048815646	63
354	234	0.001767890986	127
354	270	0.002415890986	255
355	64	0.000169537652	14
355	101	0.000418740368	14
355	116	0.000562740368	80
355	160	0.000993815646	80
355	226	0.001712890986	80
355	256	0.002360890986	80
356	64	0.000169537652	14
356	101	0.000418740368	14
356	116	0.000562740368	80
356	160	0.000993815646	80
356	226	0.001712890986	80
356	256	0.002360890986	80
359	226	0.001712890986	80
359	256	0.002360890986	80
360	64	0.000169537652	14
360	101	0.000418740368	14
360	116	0.000562740368	80
360	160	0.000993815646	80
361	47	0.000125537652	80
361	84	0.000374740368	80
361	143	0.000609815646	14
361	320	0.003131966373	468
362	47	0.000125537652	80
362	84	0.000374740368	80
362	143	0.000609815646	14
362	320	0.003131966373	468
366	47	0.000125537652	80
366	84	0.000374740368	80
366	143	0.000609815646	14
366	320	0.003131966373	468
367	209	0.001548890986	14
367	305	0.002835966377	14
368	209	0.001548890986	14
368	305	0.002835966377	14
371	0	0	0
371	0	0	0
371	110	0.000508740368	1
371	143	0.000609815646	0
371	147	0.000939815646	1
371	173	0.001048815646	0
371	213	0.001658890986	1
371	234	0.001767890986	0
371	250	0.002306890986	1
371	270	0.002415890986	0
372	47	0.000125537652	24000000
372	84	0.000374740368	24000000
372	110	0.000508740368	24000000
372	147	0.000939815646	24000000
372	213	0.001658890986	24000000
372	250	0.002306890986	24000000
372	320	0.003131966373	24000000
373	116	0.000562740368	0
373	116	0.000562740368	4.4e-05
373	136	0.000606740368	0
373	160	0.000993815646	0
373	160	0.000993815646	4.4e-05
373	172	0.001037815646	0
373	226	0.001712890986	0
373	226	0.001712890986	4.4e-05
373	233	0.001756890986	0
373	256	0.002360890986	0
373	256	0.002360890986	4.4e-05
373	268	0.002404890986	0
374	47	0.000125537652	52
374	84	0.000374740368	52
374	320	0.003131966373	440
375	56	0.000135537652	14
375	93	0.000384740368	14
375	110	0.000508740368	80
375	147	0.000939815646	80
375	213	0.001658890986	80
375	250	0.002306890986	80
376	53	0.000125537652	52
376	90	0.000374740368	52
377	47	0.000125537652	80
377	84	0.000374740368	80
377	143	0.000609815646	14
377	209	0.001548890986	14
377	305	0.002835966377	14
377	320	0.003131966373	468
378	209	0.001548890986	14
378	305	0.002835966377	14
380	209	0.001548890986	14
380	305	0.002835966377	14
385	0	0	0
385	0	0	0
385	0	0	2
385	57	0.000135537652	3
385	65	0.000169537652	2
385	94	0.000384740368	3
385	102	0.000418740368	2
385	111	0.000508740368	3
385	117	0.000562740368	2
385	148	0.000939815646	3
385	161	0.000993815646	2
385	214	0.001658890986	3
385	227	0.001712890986	2
385	251	0.002306890986	3
385	257	0.002360890986	2
386	0	0	1
386	40	0.000071537652	3
386	46	0.000125537652	1
386	57	0.000135537652	0
386	65	0.000169537652	1
386	77	0.000320740368	3
386	83	0.000374740368	1
386	94	0.000384740368	0
386	102	0.000418740368	1
386	111	0.000508740368	0
386	117	0.000562740368	1
386	134	0.000575815646	3
386	142	0.000609815646	1
386	148	0.000939815646	0
386	161	0.000993815646	1
386	200	0.001514890986	3
386	208	0.001548890986	1
386	214	0.001658890986	0
386	227	0.001712890986	1
386	251	0.002306890986	0
386	257	0.002360890986	1
386	296	0.002801966377	3
386	304	0.002835966377	1
386	313	0.002945966373	3
386	319	0.003131966373	1
387	57	0.000135537652	1
387	58	0.000135537652	2
387	64	0.000169537652	1
387	65	0.000169537652	0
387	94	0.000384740368	1
387	95	0.000384740368	2
387	101	0.000418740368	1
387	102	0.000418740368	0
387	111	0.000508740368	1
387	112	0.000508740368	2
387	116	0.000562740368	1
387	117	0.000562740368	0
387	148	0.000939815646	1
387	149	0.000939815646	2
387	160	0.000993815646	1
387	161	0.000993815646	0
387	214	0.001658890986	1
387	215	0.001658890986	2
387	226	0.001712890986	1
387	227	0.001712890986	0
387	251	0.002306890986	1
387	252	0.002306890986	2
387	256	0.002360890986	1
387	257	0.002360890986	0
388	0	0	0
399	0	0	0
400	0	0	0
401	0	0	0
410	0	0	0
410	0	0	0
415	0	0	0
415	0	0	0
419	0	0	0
419	0	0	0
419	0	0	0
419	0	0	0
419	0	0	0
420	0	0	0
420	0	0	0
420	0	0	0
420	0	0	0
420	0	0	0
434	0	0	0
434	0	0	0
453	0	0	0
454	0	0	0
455	0	0	0
462	192	0.001503353375	0
463	192	0.001503353375	0
474	192	0.001503353375	0
520	50	0.000125537652	0
520	87	0.000374740368	0
521	50	0.000125537652	0
521	87	0.000374740368	0
532	50	0.000125537652	0
532	87	0.000374740368	0
545	16	0	7504
546	16	0	7504
548	16	0	0
559	16	0	0
573	125	0.000564278008	7504
574	19	0	7504
574	125	0.000564278008	7504
575	19	0	7504
575	125	0.000564278008	7536
575	125	0.000564278008	7536
576	125	0.000564278008	1
577	19	0	0
577	125	0.000564278008	32
578	125	0.000564278008	31
579	125	0.000564278008	1
580	125	0.000564278008	392
588	19	0	0
588	125	0.000564278008	0
590	125	0.000564278008	0
603	21	0	7504
604	21	0	7504
606	21	0	0
617	21	0	0
631	50	0.000125537652	7504
631	323	0.003131966373	7504
632	50	0.000125537652	7504
632	323	0.003131966373	7112
633	50	0.000125537652	7505
633	50	0.000125537652	7505
633	323	0.003131966373	7505
635	50	0.000125537652	1
635	323	0.003131966373	393
636	323	0.003131966373	1
637	323	0.003131966373	32
638	323	0.003131966373	0
639	323	0.003131966373	0
646	50	0.000125537652	0
646	323	0.003131966373	0
646	323	0.003131966373	392
648	323	0.003131966373	392
649	323	0.003131966373	1072
650	323	0.003131966373	4294967295
660	87	0.000374740368	7504
661	87	0.000374740368	7504
662	87	0.000374740368	7505
662	87	0.000374740368	7505
664	87	0.000374740368	1
675	87	0.000374740368	0
689	192	0.001503353375	7504
690	192	0.001503353375	7504
691	192	0.001503353375	7505
691	192	0.001503353375	7505
693	192	0.001503353375	1
704	192	0.001503353375	0

