version 3
run General-0-20250120-17:40:49-27704
attr configname General
attr datetime 20250120-17:40:49
attr datetimef 20250120-174049
attr experiment General
attr inifile SatelliteEnvironment.ini
attr iterationvars ""
attr iterationvarsd ""
attr iterationvarsf ""
attr measurement ""
attr network leosatelliteenvironment.SatelliteNetwork
attr processid 27704
attr repetition 0
attr replication #0
attr resultdir results
attr runnumber 0
attr seedset 0
config image-path ../../inet4.5/images
config network leosatelliteenvironment.SatelliteNetwork
config *.*.ipv4.arp.typename GlobalArp
config *.satellite1.typename SatelliteNode
config *.satellite2.typename SatelliteNode
config *.userTerminal.typename UserTerminal
config *.groundStation.typename GroundStation
config **.routingTable.debug true
config *.configurator.optimizeRoutes false
config *.satellite2.wlan[0].typename Ieee80211Interface
config *.satellite1.wlan[0].typename Ieee80211Interface
config *.userTerminal.wlan[0].radio.antenna.typename CosineAntenna
config *.userTerminal.wlan[0].radio.antenna.beamWidth 30deg
config *.userTerminal.wlan[0].radio.antenna.maxGain 10dB
config *.userTerminal.wlan[0].radio.antenna.minGain -10dB
config *.userTerminal.wlan[0].radio.maxTransmissionPower 25W
config *.groundStation.wlan[0].radio.antenna.typename CosineAntenna
config *.groundStation.wlan[0].radio.antenna.beamWidth 25deg
config *.groundStation.wlan[0].radio.antenna.maxGain 10dB
config *.groundStation.wlan[0].radio.antenna.minGain -10dB
config *.groundStation.wlan[0].radio.transmitter.power 25mW
config **.wlan[*].typename Ieee80211Interface
config **.wlan[*].dataRate 10Mbps
config *.visualizer.*.radioVisualizer.displayRadios true
config *.visualizer.*.radioVisualizer.dislayAntennaLobes true
config *.visualizer.*.dataLinkVisualizer.displayLinks true
config *.visualizer.*.transportConnectionVisualizer.displayConnections true
config *.radioMedium.typename Ieee80211ScalarRadioMedium
config *.radioMedium.mediumLimitCache.maxTransmissionPower "50 W"
config *.radioMedium.mediumLimitCache.maxCommunicationRange "175 m"
config **.debug true
config **.wlan[*].radio.transmitter.debug true
config **.wlan[*].radio.receiver.debug true
config **.constraintAreaMinX 0m
config **.constraintAreaMinY 0m
config **.constraintAreaMinZ 0m
config **.constraintAreaMaxX 1000m
config **.constraintAreaMaxY 600m
config **.constraintAreaMaxZ 0m
config **.updateInterval 0.1s
config *.satellite1.mobility.typename CircleMobility
config *.satellite1.mobility.cx 600m
config *.satellite1.mobility.cy 300m
config *.satellite1.mobility.r 150m
config *.satellite1.mobility.startAngle 0deg
config *.satellite1.mobility.speed 40mps
config *.satellite2.mobility.typename CircleMobility
config *.satellite2.mobility.cx 600m
config *.satellite2.mobility.cy 300m
config *.satellite2.mobility.r 150m
config *.satellite2.mobility.startAngle 180deg
config *.satellite2.mobility.speed 40mps
config *.userTerminal.numApps 2
config *.userTerminal.app[0].typename TcpClientApp
config *.userTerminal.app[0].io.connectAddress "\"192.168.1.2\""
config *.userTerminal.app[0].io.connectPort 8080
config *.userTerminal.app[0].source.productionInterval "uniform(0.5s, 1s)"
config *.userTerminal.app[0].source.packetLength "intuniform(100B, 500B)"
config *.userTerminal.app[1].typename UdpApp
config *.userTerminal.app[1].io.localPort 1000
config *.userTerminal.app[1].io.destAddress "\"192.168.1.2\""
config *.userTerminal.app[1].io.destPort 1000
config *.userTerminal.app[1].source.productionInterval "uniform(0.5s, 1s)"
config *.userTerminal.app[1].source.packetLength "intuniform(100B, 500B)"
config *.satellite*.numApps 3
config *.satellite*.app[0].typename TcpServerApp
config *.satellite*.app[0].listener.localPort 8080
config *.satellite*.app[1].typename UdpRequestResponseApp
config *.satellite*.app[1].io.localPort 1000
config *.satellite*.app[1].io.destAddress "\"192.168.1.3\""
config *.satellite*.app[1].io.destPort 1000
config *.satellite*.app[1].sink.tokenGenerator[0].numTokensPerPacket "intuniform(10, 20)"
config *.satellite*.app[1].sink.tokenGenerator[1].numTokensPerPacket "intuniform(5, 10)"
config *.satellite*.app[1].source.provider[0].packetLength "intuniform(100B, 1000B)"
config *.satellite*.app[1].source.provider[0].providingInterval "uniform(0s, 0.2s)"
config *.satellite*.app[2].typename TcpClientApp
config *.satellite*.app[2].io.connectAddress "\"192.168.1.3\""
config *.satellite*.app[2].io.connectPort 8000
config *.satellite*.app[2].source.productionInterval "uniform(0.5s, 1s)"
config *.satellite*.app[2].source.packetLength "intuniform(100B, 500B)"
config *.groundStation.numApps 2
config *.groundStation.app[0].typename TcpServerApp
config *.groundStation.app[0].listener.localPort 8000
config *.groundStation.app[1].typename UdpRequestResponseApp
config *.groundStation.app[1].io.localPort 1000
config *.groundStation.app[1].io.destAddress "\"192.168.1.2\""
config *.groundStation.app[1].io.destPort 1000
config *.groundStation.app[1].sink.tokenGenerator[0].numTokensPerPacket "intuniform(10, 20)"
config *.groundStation.app[1].sink.tokenGenerator[1].numTokensPerPacket "intuniform(5, 10)"
config *.groundStation.app[1].source.provider[0].packetLength "intuniform(100B, 1000B)"
config *.groundStation.app[1].source.provider[0].providingInterval "uniform(0s, 0.2s)"
config *.satellite1.numApps 2
config *.satellite1.app[0].typename TcpClientApp
config *.satellite1.app[0].io.connectAddress "\"192.168.1.4\""
config *.satellite1.app[0].io.connectPort 8080
config *.satellite1.app[0].source.productionInterval "uniform(0s, 20s)"
config *.satellite1.app[0].source.packetLength "intuniform(100B, 200B)"
config *.satellite1.app[0].source.packetData "intuniform(0, 1)"
config *.satellite1.app[1].typename UdpApp
config *.satellite1.app[1].io.localPort 1000
config *.satellite1.app[1].io.destAddress "\"192.168.1.4\""
config *.satellite1.app[1].io.destPort 1000
config *.satellite1.app[1].source.productionInterval 1s
config *.satellite1.app[1].source.packetLength "intuniform(100B, 200B)"
config *.satellite1.app[1].source.packetData "intuniform(0, 1)"
config *.satellite2.numApps 2
config *.satellite2.app[0].typename TcpServerApp
config *.satellite2.app[0].listener.localPort 8080
config *.satellite2.app[1].typename UdpRequestResponseApp
config *.satellite2.app[1].io.localPort 1000
config *.satellite2.app[1].io.destAddress "\"192.168.1.2\""
config *.satellite2.app[1].io.destPort 1000
config *.satellite2.app[1].sink.tokenGenerator[0].numTokensPerPacket "intuniform(10, 20)"
config *.satellite2.app[1].sink.tokenGenerator[1].numTokensPerPacket "intuniform(5, 10)"
config *.satellite2.app[1].source.provider[0].packetLength "intuniform(100B, 1000B)"
config *.satellite2.app[1].source.provider[0].providingInterval "uniform(0s, 0.2s)"

vector 0 SatelliteNetwork.userTerminal.lo[0].lo rcvdPkFromHl:vector(packetBytes) ETV
attr interpolationmode none
attr recordingmode vector(packetBytes)
attr source packetReceivedFromUpper
attr title "packets received from higher layer, packetBytes"
vector 1 SatelliteNetwork.userTerminal.lo[0].lo passedUpPk:vector(packetBytes) ETV
attr interpolationmode none
attr recordingmode vector(packetBytes)
attr source packetSentToUpper
attr title "packets passed to higher layer, packetBytes"
vector 2 SatelliteNetwork.userTerminal.lo[0] packetDropInterfaceDown:vector(packetBytes) ETV
attr interpolationmode none
attr recordingmode vector(packetBytes)
attr source packetDropReasonIsInterfaceDown(packetDropped)
attr title "packet drops: interface down, packetBytes"
vector 3 SatelliteNetwork.userTerminal.lo[0] packetDropNoCarrier:vector(packetBytes) ETV
attr interpolationmode none
attr recordingmode vector(packetBytes)
attr source packetDropReasonIsNoCarrier(packetDropped)
attr title "packet drops: no carrier, packetBytes"
vector 4 SatelliteNetwork.userTerminal.wlan[0].mac.dcf.channelAccess.pendingQueue queueLength:vector ETV
attr autoWarmupFilter false
attr interpolationmode sample-hold
attr recordingmode vector
attr source "warmup(atomic(constant0(packetPushEnded) + count(packetPushStarted) - count(packetPulled) - count(packetRemoved) - count(packetDropped)))"
attr title "queue length"
attr unit pk
vector 5 SatelliteNetwork.userTerminal.wlan[0].mac.dcf.channelAccess.pendingQueue queueBitLength:vector ETV
attr autoWarmupFilter false
attr interpolationmode sample-hold
attr recordingmode vector
attr source "warmup(atomic(constant0(packetPushEnded) + sum(packetLength(packetPushStarted)) - sum(packetLength(packetPulled)) - sum(packetLength(packetRemoved)) - sum(packetLength(packetDropped))))"
attr title "queue bit length"
attr unit b
vector 6 SatelliteNetwork.userTerminal.wlan[0].mac.dcf.channelAccess.pendingQueue queueingTime:vector ETV
attr interpolationmode none
attr recordingmode vector
attr source queueingTime(packetPulled)
attr title "queueing times"
attr unit s
vector 7 SatelliteNetwork.userTerminal.wlan[0].mac.dcf.channelAccess.pendingQueue incomingPacketLengths:vector ETV
attr interpolationmode none
attr recordingmode vector
attr source packetLength(packetPushStarted)
attr title "incoming packet lengths"
attr unit b
vector 8 SatelliteNetwork.userTerminal.wlan[0].mac.dcf.channelAccess.pendingQueue incomingDataRate:vector ETV
attr interpolationmode linear
attr recordingmode vector
attr source throughput(packetPushStarted)
attr title "incoming datarate"
attr unit bps
vector 9 SatelliteNetwork.userTerminal.wlan[0].mac.dcf.channelAccess.pendingQueue outgoingPacketLengths:vector ETV
attr interpolationmode none
attr recordingmode vector
attr source packetLength(packetPulled)
attr title "outgoing packet lengths"
attr unit b
vector 10 SatelliteNetwork.userTerminal.wlan[0].mac.dcf.channelAccess.pendingQueue outgoingDataRate:vector ETV
attr interpolationmode linear
attr recordingmode vector
attr source throughput(packetPulled)
attr title "outgoing datarate"
attr unit bps
vector 11 SatelliteNetwork.userTerminal.wlan[0].mac.dcf.channelAccess.pendingQueue droppedPacketLengthsQueueOverflow:vector ETV
attr interpolationmode none
attr recordingmode vector
attr source packetLength(packetDropReasonIsQueueOverflow(packetDropped))
attr title "dropped packet lengths: queue overflow"
attr unit b
vector 12 SatelliteNetwork.userTerminal.wlan[0].mac.dcf.channelAccess.pendingQueue flowQueueingTime:vector ETV
attr interpolationmode none
attr recordingmode vector
attr source queueingTime(demuxFlow(packetPulled))
attr title "flow queueing times"
attr unit s
vector 13 SatelliteNetwork.userTerminal.wlan[0].mac.dcf.channelAccess.pendingQueue flowIncomingDataRate:vector ETV
attr interpolationmode linear
attr recordingmode vector
attr source throughput(flowPacketLength(demuxFlow(packetPushStarted)))
attr title "flow specific incoming data rate"
attr unit bps
vector 14 SatelliteNetwork.userTerminal.wlan[0].mac.dcf.channelAccess.pendingQueue flowOutgoingDataRate:vector ETV
attr interpolationmode linear
attr recordingmode vector
attr source throughput(flowPacketLength(demuxFlow(packetPulled)))
attr title "flow specific outgoing data rate"
attr unit bps
vector 15 SatelliteNetwork.userTerminal.wlan[0].mac.dcf.channelAccess.inProgressFrames queueingTime:vector ETV
attr interpolationmode none
attr recordingmode vector
attr source queueingTime(packetDequeued)
attr title "queueing times"
vector 16 SatelliteNetwork.userTerminal.wlan[0].mac.dcf.channelAccess.inProgressFrames queueLength:vector ETV
attr autoWarmupFilter false
attr interpolationmode sample-hold
attr recordingmode vector
attr source "warmup(count(packetEnqueued) - count(packetDequeued))"
attr title "queue length"
vector 17 SatelliteNetwork.userTerminal.wlan[0].mac.dcf.channelAccess.contention backoffPeriodGenerated:vector ETV
attr interpolationmode none
attr recordingmode vector
attr title "backoff periods"
vector 18 SatelliteNetwork.userTerminal.wlan[0].mac.dcf.channelAccess.contention backoffActive:vector ETV
attr autoWarmupFilter false
attr interpolationmode sample-hold
attr recordingmode vector
attr source warmup(count(backoffStarted)-count(backoffStopped))
attr title "backoff active"
vector 19 SatelliteNetwork.userTerminal.wlan[0].mac.dcf.channelAccess.contention stateChanged:vector ETV
attr enum IDLE,DEFER,IFS_AND_BACKOFF
attr interpolationmode none
attr recordingmode vector
attr title "contention state changed"
attr type enum
vector 20 SatelliteNetwork.userTerminal.wlan[0].mac.dcf.recipientMacDataService packetDropDuplicateDetected:vector(packetBytes) ETV
attr interpolationmode none
attr recordingmode vector(packetBytes)
attr source packetDropReasonIsDuplicateDetected(packetDropped)
attr title "packet drops: duplicate detected, packetBytes"
vector 21 SatelliteNetwork.userTerminal.wlan[0].mac.dcf.recoveryProcedure contentionWindowChanged:vector ETV
attr interpolationmode sample-hold
attr recordingmode vector
attr title "contention window"
vector 22 SatelliteNetwork.userTerminal.wlan[0].mac.dcf packetSentToPeer:vector(packetBytes) ETV
attr interpolationmode none
attr recordingmode vector(packetBytes)
attr title "packets sent, packetBytes"
vector 23 SatelliteNetwork.userTerminal.wlan[0].mac.dcf packetSentToPeerUnicast:vector(packetBytes) ETV
attr interpolationmode none
attr recordingmode vector(packetBytes)
attr source ieee80211Unicast(packetSentToPeer)
attr title "packets sent: unicast, packetBytes"
vector 24 SatelliteNetwork.userTerminal.wlan[0].mac.dcf packetSentToPeerMulticast:vector(packetBytes) ETV
attr interpolationmode none
attr recordingmode vector(packetBytes)
attr source ieee80211Multicast(packetSentToPeer)
attr title "packets sent: multicast, packetBytes"
vector 25 SatelliteNetwork.userTerminal.wlan[0].mac.dcf packetSentToPeerBroadcast:vector(packetBytes) ETV
attr interpolationmode none
attr recordingmode vector(packetBytes)
attr source ieee80211Broadcast(packetSentToPeer)
attr title "packets sent: broadcast , packetBytes"
vector 26 SatelliteNetwork.userTerminal.wlan[0].mac.dcf packetSentToPeerWithRetry:vector(packetBytes) ETV
attr interpolationmode none
attr recordingmode vector(packetBytes)
attr source ieee80211Retry(packetSentToPeer)
attr title "packets sent: with retry, packetBytes"
vector 27 SatelliteNetwork.userTerminal.wlan[0].mac.dcf packetSentToPeerWithoutRetry:vector(packetBytes) ETV
attr interpolationmode none
attr recordingmode vector(packetBytes)
attr source ieee80211NotRetry(packetSentToPeer)
attr title "packets sent: without retry, packetBytes"
vector 28 SatelliteNetwork.userTerminal.wlan[0].mac.dcf packetReceivedFromPeer:vector(packetBytes) ETV
attr interpolationmode none
attr recordingmode vector(packetBytes)
attr title "packets received, packetBytes"
vector 29 SatelliteNetwork.userTerminal.wlan[0].mac.dcf packetReceivedFromPeerUnicast:vector(packetBytes) ETV
attr interpolationmode none
attr recordingmode vector(packetBytes)
attr source ieee80211Unicast(packetReceivedFromPeer)
attr title "packets received: unicast, packetBytes"
vector 30 SatelliteNetwork.userTerminal.wlan[0].mac.dcf packetReceivedFromPeerMulticast:vector(packetBytes) ETV
attr interpolationmode none
attr recordingmode vector(packetBytes)
attr source ieee80211Multicast(packetReceivedFromPeer)
attr title "packets received: multicast, packetBytes"
vector 31 SatelliteNetwork.userTerminal.wlan[0].mac.dcf packetReceivedFromPeerBroadcast:vector(packetBytes) ETV
attr interpolationmode none
attr recordingmode vector(packetBytes)
attr source ieee80211Broadcast(packetReceivedFromPeer)
attr title "packets received: broadcast, packetBytes"
vector 32 SatelliteNetwork.userTerminal.wlan[0].mac.dcf packetReceivedFromPeerWithRetry:vector(packetBytes) ETV
attr interpolationmode none
attr recordingmode vector(packetBytes)
attr source ieee80211Retry(packetReceivedFromPeer)
attr title "packets received: with retry, packetBytes"
vector 33 SatelliteNetwork.userTerminal.wlan[0].mac.dcf packetReceivedFromPeerWithoutRetry:vector(packetBytes) ETV
attr interpolationmode none
attr recordingmode vector(packetBytes)
attr source ieee80211NotRetry(packetReceivedFromPeer)
attr title "packets received: without retry, packetBytes"
vector 34 SatelliteNetwork.userTerminal.wlan[0].mac.dcf packetDrop:vector(packetBytes) ETV
attr interpolationmode none
attr recordingmode vector(packetBytes)
attr source packetDropped
attr title "packet drops, packetBytes"
vector 35 SatelliteNetwork.userTerminal.wlan[0].mac.dcf packetDropNotAddressedToUs:vector(packetBytes) ETV
attr interpolationmode none
attr recordingmode vector(packetBytes)
attr source packetDropReasonIsNotAddressedToUs(packetDropped)
attr title "packet drops: not addressed to us, packetBytes"
vector 36 SatelliteNetwork.userTerminal.wlan[0].mac.dcf packetDropQueueOverflow:vector(packetBytes) ETV
attr interpolationmode none
attr recordingmode vector(packetBytes)
attr source packetDropReasonIsQueueOverflow(packetDropped)
attr title "packet drops: queue overflow, packetBytes"
vector 37 SatelliteNetwork.userTerminal.wlan[0].mac.dcf packetDropRetryLimitReached:vector(packetBytes) ETV
attr interpolationmode none
attr recordingmode vector(packetBytes)
attr source packetDropReasonIsRetryLimitReached(packetDropped)
attr title "packet drops: retry limit reached, packetBytes"
vector 38 SatelliteNetwork.userTerminal.wlan[0].mac.dcf frameSequenceActive:vector ETV
attr autoWarmupFilter false
attr interpolationmode sample-hold
attr recordingmode vector
attr source warmup(count(frameSequenceStarted)-count(frameSequenceFinished))
attr title "frame sequence active"
vector 39 SatelliteNetwork.userTerminal.wlan[0].mac.dcf datarateSelected:vector ETV
attr interpolationmode none
attr recordingmode vector
attr title "datarates selected"
vector 40 SatelliteNetwork.userTerminal.wlan[0].mac.rx nav:vector ETV
attr interpolationmode linear
attr recordingmode vector
attr source navChanged
attr title "network allocation vector"
vector 41 SatelliteNetwork.userTerminal.wlan[0].mac packetSentToUpper:vector(packetBytes) ETV
attr interpolationmode none
attr recordingmode vector(packetBytes)
attr title "packets sent to upper layer, packetBytes"
vector 42 SatelliteNetwork.userTerminal.wlan[0].mac packetSentToLower:vector(packetBytes) ETV
attr interpolationmode none
attr recordingmode vector(packetBytes)
attr title "packets sent to lower layer, packetBytes"
vector 43 SatelliteNetwork.userTerminal.wlan[0].mac packetReceivedFromUpper:vector(packetBytes) ETV
attr interpolationmode none
attr recordingmode vector(packetBytes)
attr title "packets received from upper layer, packetBytes"
vector 44 SatelliteNetwork.userTerminal.wlan[0].mac packetReceivedFromLower:vector(packetBytes) ETV
attr interpolationmode none
attr recordingmode vector(packetBytes)
attr title "packets received from lower layer, packetBytes"
vector 45 SatelliteNetwork.userTerminal.wlan[0].mac packetDrop:vector(packetBytes) ETV
attr interpolationmode none
attr recordingmode vector(packetBytes)
attr source packetDropped
attr title "packet drops, packetBytes"
vector 46 SatelliteNetwork.userTerminal.wlan[0].mac packetDropIncorrectlyReceived:vector(packetBytes) ETV
attr interpolationmode none
attr recordingmode vector(packetBytes)
attr source packetDropReasonIsIncorrectlyReceived(packetDropped)
attr title "packet drops: incorrectly received, packetBytes"
vector 47 SatelliteNetwork.userTerminal.wlan[0].mac packetDropNotAddressedToUs:vector(packetBytes) ETV
attr interpolationmode none
attr recordingmode vector(packetBytes)
attr source packetDropReasonIsNotAddressedToUs(packetDropped)
attr title "packet drops: not addressed to us, packetBytes"
vector 48 SatelliteNetwork.userTerminal.wlan[0].mac packetDropQueueOverflow:vector(packetBytes) ETV
attr interpolationmode none
attr recordingmode vector(packetBytes)
attr source packetDropReasonIsQueueOverflow(packetDropped)
attr title "packet drops: queue overflow, packetBytes"
vector 49 SatelliteNetwork.userTerminal.wlan[0].mac packetDropRetryLimitReached:vector(packetBytes) ETV
attr interpolationmode none
attr recordingmode vector(packetBytes)
attr source packetDropReasonIsRetryLimitReached(packetDropped)
attr title "packet drops: retry limit reached, packetBytes"
vector 50 SatelliteNetwork.userTerminal.wlan[0].mac packetDropDuplicateDetected:vector(packetBytes) ETV
attr interpolationmode none
attr recordingmode vector(packetBytes)
attr source packetDropReasonIsDuplicateDetected(packetDropped)
attr title "packet drops: duplicate detected, packetBytes"
vector 51 SatelliteNetwork.userTerminal.wlan[0].mac packetDropOther:vector(packetBytes) ETV
attr interpolationmode none
attr recordingmode vector(packetBytes)
attr source packetDropReasonIsOther(packetDropped)
attr title "packet drops: other, packetBytes"
vector 52 SatelliteNetwork.userTerminal.wlan[0].radio radioMode:vector ETV
attr interpolationmode sample-hold
attr recordingmode vector
attr source radioModeChanged
attr title "Radio mode"
vector 53 SatelliteNetwork.userTerminal.wlan[0].radio receptionState:vector ETV
attr interpolationmode sample-hold
attr recordingmode vector
attr source receptionStateChanged
attr title "Radio reception state"
vector 54 SatelliteNetwork.userTerminal.wlan[0].radio transmissionState:vector ETV
attr interpolationmode sample-hold
attr recordingmode vector
attr source transmissionStateChanged
attr title "Radio transmission state"
vector 55 SatelliteNetwork.userTerminal.wlan[0].radio radioChannel:vector ETV
attr interpolationmode sample-hold
attr recordingmode vector
attr source radioChannelChanged
attr title "Radio channel"
vector 56 SatelliteNetwork.userTerminal.wlan[0] packetDropInterfaceDown:vector(packetBytes) ETV
attr interpolationmode none
attr recordingmode vector(packetBytes)
attr source packetDropReasonIsInterfaceDown(packetDropped)
attr title "packet drops: interface down, packetBytes"
vector 57 SatelliteNetwork.userTerminal.wlan[0] packetDropNoCarrier:vector(packetBytes) ETV
attr interpolationmode none
attr recordingmode vector(packetBytes)
attr source packetDropReasonIsNoCarrier(packetDropped)
attr title "packet drops: no carrier, packetBytes"
vector 58 SatelliteNetwork.userTerminal.ipv4.ip packetDropAddressResolutionFailed:vector(packetBytes) ETV
attr interpolationmode none
attr recordingmode vector(packetBytes)
attr source packetDropReasonIsAddressResolutionFailed(packetDropped)
attr title "packet drop: address resolution failed, packetBytes"
vector 59 SatelliteNetwork.userTerminal.ipv4.ip packetDropHopLimitReached:vector(packetBytes) ETV
attr interpolationmode none
attr recordingmode vector(packetBytes)
attr source packetDropReasonIsHopLimitReached(packetDropped)
attr title "packet drop: hop limit reached, packetBytes"
vector 60 SatelliteNetwork.userTerminal.ipv4.ip packetDropForwardingDisabled:vector(packetBytes) ETV
attr interpolationmode none
attr recordingmode vector(packetBytes)
attr source packetDropReasonIsForwardingDisabled(packetDropped)
attr title "packet drop: forwarding disabled, packetBytes"
vector 61 SatelliteNetwork.userTerminal.ipv4.ip packetDropNoInterfaceFound:vector(packetBytes) ETV
attr interpolationmode none
attr recordingmode vector(packetBytes)
attr source packetDropReasonIsNoInterfaceFound(packetDropped)
attr title "packet drop: no interface found, packetBytes"
vector 62 SatelliteNetwork.userTerminal.ipv4.ip packetDropNoRouteFound:vector(packetBytes) ETV
attr interpolationmode none
attr recordingmode vector(packetBytes)
attr source packetDropReasonIsNoRouteFound(packetDropped)
attr title "packet drop: no route found, packetBytes"
vector 63 SatelliteNetwork.userTerminal.ipv4.ip packetDropUndefined:vector(packetBytes) ETV
attr interpolationmode none
attr recordingmode vector(packetBytes)
attr source packetDropReasonIsUndefined(packetDropped)
attr title "packet drop: undefined, packetBytes"
vector 64 SatelliteNetwork.userTerminal.udp packetSent:vector(packetBytes) ETV
attr interpolationmode none
attr recordingmode vector(packetBytes)
attr source packetSent
attr title "packets sent, packetBytes"
vector 65 SatelliteNetwork.userTerminal.udp packetReceived:vector(packetBytes) ETV
attr interpolationmode none
attr recordingmode vector(packetBytes)
attr source packetReceived
attr title "packets received, packetBytes"
vector 66 SatelliteNetwork.userTerminal.udp passedUpPk:vector(count) ETV
attr interpolationmode none
attr recordingmode vector(count)
attr source packetSentToUpper
attr title "packets passed up, count"
vector 67 SatelliteNetwork.userTerminal.udp droppedPkWrongPort:vector(count) ETV
attr interpolationmode none
attr recordingmode vector(count)
attr source packetDropReasonIsNoPortFound(packetDropped)
attr title "packets dropped (wrong port), count"
vector 68 SatelliteNetwork.userTerminal.udp droppedPkBadChecksum:vector(count) ETV
attr interpolationmode none
attr recordingmode vector(count)
attr source packetDropReasonIsIncorrectlyReceived(packetDropped)
attr title "packets dropped (checksum error), count"
vector 69 SatelliteNetwork.userTerminal.app[0].source packetLengths:vector ETV
attr interpolationmode none
attr recordingmode vector
attr source packetLength(packetPushed)
attr title "packet lengths"
attr unit b
vector 70 SatelliteNetwork.userTerminal.app[0].source dataRate:vector ETV
attr interpolationmode linear
attr recordingmode vector
attr source throughput(packetPushed)
attr title "data rate"
attr unit bps
vector 71 SatelliteNetwork.userTerminal.app[0].sink droppedPacketLengths:vector ETV
attr interpolationmode none
attr recordingmode vector
attr source packetLength(packetDropped)
attr title "dropped packet lengths"
attr unit b
vector 72 SatelliteNetwork.userTerminal.app[0].sink droppedDataRate:vector ETV
attr interpolationmode linear
attr recordingmode vector
attr source throughput(packetDropped)
attr title "dropped data rate"
attr unit bps
vector 73 SatelliteNetwork.userTerminal.app[0].sink packetLengths:vector ETV
attr interpolationmode none
attr recordingmode vector
attr source packetLength(packetPushed)
attr title "packet lengths"
attr unit b
vector 74 SatelliteNetwork.userTerminal.app[0].sink dataRate:vector ETV
attr interpolationmode linear
attr recordingmode vector
attr source throughput(packetPushed)
attr title "data rate"
attr unit bps
vector 75 SatelliteNetwork.userTerminal.app[0].sink meanBitLifeTimePerPacket:vector ETV
attr interpolationmode none
attr recordingmode vector
attr source weightedMeanPerGroup(groupRegionsPerPacket(lifeTimePerRegion(packetPushed)))
attr title "mean bit life time per packet"
attr unit s
vector 76 SatelliteNetwork.userTerminal.app[0].sink packetJitter:vector ETV
attr interpolationmode none
attr recordingmode vector
attr source jitter(weightedMeanPerGroup(groupRegionsPerPacket(lifeTimePerRegion(packetPushed))))
attr title "packet jitter"
attr unit s
vector 77 SatelliteNetwork.userTerminal.app[0].sink packetDelayDifferenceToMean:vector ETV
attr interpolationmode none
attr recordingmode vector
attr source differenceToMean(weightedMeanPerGroup(groupRegionsPerPacket(lifeTimePerRegion(packetPushed))))
attr title "packet delay difference to mean"
attr unit s
vector 78 SatelliteNetwork.userTerminal.app[0].sink packetDelayVariation:vector ETV
attr recordingmode vector
attr source stddev(weightedMeanPerGroup(groupRegionsPerPacket(lifeTimePerRegion(packetPushed))))
attr title "packet delay variation"
attr unit s
vector 79 SatelliteNetwork.userTerminal.app[1].source packetLengths:vector ETV
attr interpolationmode none
attr recordingmode vector
attr source packetLength(packetPushed)
attr title "packet lengths"
attr unit b
vector 80 SatelliteNetwork.userTerminal.app[1].source dataRate:vector ETV
attr interpolationmode linear
attr recordingmode vector
attr source throughput(packetPushed)
attr title "data rate"
attr unit bps
vector 81 SatelliteNetwork.userTerminal.app[1].sink droppedPacketLengths:vector ETV
attr interpolationmode none
attr recordingmode vector
attr source packetLength(packetDropped)
attr title "dropped packet lengths"
attr unit b
vector 82 SatelliteNetwork.userTerminal.app[1].sink droppedDataRate:vector ETV
attr interpolationmode linear
attr recordingmode vector
attr source throughput(packetDropped)
attr title "dropped data rate"
attr unit bps
vector 83 SatelliteNetwork.userTerminal.app[1].sink packetLengths:vector ETV
attr interpolationmode none
attr recordingmode vector
attr source packetLength(packetPushed)
attr title "packet lengths"
attr unit b
vector 84 SatelliteNetwork.userTerminal.app[1].sink dataRate:vector ETV
attr interpolationmode linear
attr recordingmode vector
attr source throughput(packetPushed)
attr title "data rate"
attr unit bps
vector 85 SatelliteNetwork.userTerminal.app[1].sink meanBitLifeTimePerPacket:vector ETV
attr interpolationmode none
attr recordingmode vector
attr source weightedMeanPerGroup(groupRegionsPerPacket(lifeTimePerRegion(packetPushed)))
attr title "mean bit life time per packet"
attr unit s
vector 86 SatelliteNetwork.userTerminal.app[1].sink packetJitter:vector ETV
attr interpolationmode none
attr recordingmode vector
attr source jitter(weightedMeanPerGroup(groupRegionsPerPacket(lifeTimePerRegion(packetPushed))))
attr title "packet jitter"
attr unit s
vector 87 SatelliteNetwork.userTerminal.app[1].sink packetDelayDifferenceToMean:vector ETV
attr interpolationmode none
attr recordingmode vector
attr source differenceToMean(weightedMeanPerGroup(groupRegionsPerPacket(lifeTimePerRegion(packetPushed))))
attr title "packet delay difference to mean"
attr unit s
vector 88 SatelliteNetwork.userTerminal.app[1].sink packetDelayVariation:vector ETV
attr recordingmode vector
attr source stddev(weightedMeanPerGroup(groupRegionsPerPacket(lifeTimePerRegion(packetPushed))))
attr title "packet delay variation"
attr unit s
vector 89 SatelliteNetwork.userTerminal.app[1].io packetSent:vector(packetBytes) ETV
attr interpolationmode none
attr recordingmode vector(packetBytes)
attr source packetSent
attr title "packets sent, packetBytes"
vector 90 SatelliteNetwork.userTerminal.app[1].io packetReceived:vector(packetBytes) ETV
attr interpolationmode none
attr recordingmode vector(packetBytes)
attr source packetReceived
attr title "packets received, packetBytes"
vector 91 SatelliteNetwork.satellite1.lo[0].lo rcvdPkFromHl:vector(packetBytes) ETV
attr interpolationmode none
attr recordingmode vector(packetBytes)
attr source packetReceivedFromUpper
attr title "packets received from higher layer, packetBytes"
vector 92 SatelliteNetwork.satellite1.lo[0].lo passedUpPk:vector(packetBytes) ETV
attr interpolationmode none
attr recordingmode vector(packetBytes)
attr source packetSentToUpper
attr title "packets passed to higher layer, packetBytes"
vector 93 SatelliteNetwork.satellite1.lo[0] packetDropInterfaceDown:vector(packetBytes) ETV
attr interpolationmode none
attr recordingmode vector(packetBytes)
attr source packetDropReasonIsInterfaceDown(packetDropped)
attr title "packet drops: interface down, packetBytes"
vector 94 SatelliteNetwork.satellite1.lo[0] packetDropNoCarrier:vector(packetBytes) ETV
attr interpolationmode none
attr recordingmode vector(packetBytes)
attr source packetDropReasonIsNoCarrier(packetDropped)
attr title "packet drops: no carrier, packetBytes"
vector 95 SatelliteNetwork.satellite1.wlan[0].mac.dcf.channelAccess.pendingQueue queueLength:vector ETV
attr autoWarmupFilter false
attr interpolationmode sample-hold
attr recordingmode vector
attr source "warmup(atomic(constant0(packetPushEnded) + count(packetPushStarted) - count(packetPulled) - count(packetRemoved) - count(packetDropped)))"
attr title "queue length"
attr unit pk
vector 96 SatelliteNetwork.satellite1.wlan[0].mac.dcf.channelAccess.pendingQueue queueBitLength:vector ETV
attr autoWarmupFilter false
attr interpolationmode sample-hold
attr recordingmode vector
attr source "warmup(atomic(constant0(packetPushEnded) + sum(packetLength(packetPushStarted)) - sum(packetLength(packetPulled)) - sum(packetLength(packetRemoved)) - sum(packetLength(packetDropped))))"
attr title "queue bit length"
attr unit b
vector 97 SatelliteNetwork.satellite1.wlan[0].mac.dcf.channelAccess.pendingQueue queueingTime:vector ETV
attr interpolationmode none
attr recordingmode vector
attr source queueingTime(packetPulled)
attr title "queueing times"
attr unit s
vector 98 SatelliteNetwork.satellite1.wlan[0].mac.dcf.channelAccess.pendingQueue incomingPacketLengths:vector ETV
attr interpolationmode none
attr recordingmode vector
attr source packetLength(packetPushStarted)
attr title "incoming packet lengths"
attr unit b
vector 99 SatelliteNetwork.satellite1.wlan[0].mac.dcf.channelAccess.pendingQueue incomingDataRate:vector ETV
attr interpolationmode linear
attr recordingmode vector
attr source throughput(packetPushStarted)
attr title "incoming datarate"
attr unit bps
vector 100 SatelliteNetwork.satellite1.wlan[0].mac.dcf.channelAccess.pendingQueue outgoingPacketLengths:vector ETV
attr interpolationmode none
attr recordingmode vector
attr source packetLength(packetPulled)
attr title "outgoing packet lengths"
attr unit b
vector 101 SatelliteNetwork.satellite1.wlan[0].mac.dcf.channelAccess.pendingQueue outgoingDataRate:vector ETV
attr interpolationmode linear
attr recordingmode vector
attr source throughput(packetPulled)
attr title "outgoing datarate"
attr unit bps
vector 102 SatelliteNetwork.satellite1.wlan[0].mac.dcf.channelAccess.pendingQueue droppedPacketLengthsQueueOverflow:vector ETV
attr interpolationmode none
attr recordingmode vector
attr source packetLength(packetDropReasonIsQueueOverflow(packetDropped))
attr title "dropped packet lengths: queue overflow"
attr unit b
vector 103 SatelliteNetwork.satellite1.wlan[0].mac.dcf.channelAccess.pendingQueue flowQueueingTime:vector ETV
attr interpolationmode none
attr recordingmode vector
attr source queueingTime(demuxFlow(packetPulled))
attr title "flow queueing times"
attr unit s
vector 104 SatelliteNetwork.satellite1.wlan[0].mac.dcf.channelAccess.pendingQueue flowIncomingDataRate:vector ETV
attr interpolationmode linear
attr recordingmode vector
attr source throughput(flowPacketLength(demuxFlow(packetPushStarted)))
attr title "flow specific incoming data rate"
attr unit bps
vector 105 SatelliteNetwork.satellite1.wlan[0].mac.dcf.channelAccess.pendingQueue flowOutgoingDataRate:vector ETV
attr interpolationmode linear
attr recordingmode vector
attr source throughput(flowPacketLength(demuxFlow(packetPulled)))
attr title "flow specific outgoing data rate"
attr unit bps
vector 106 SatelliteNetwork.satellite1.wlan[0].mac.dcf.channelAccess.inProgressFrames queueingTime:vector ETV
attr interpolationmode none
attr recordingmode vector
attr source queueingTime(packetDequeued)
attr title "queueing times"
vector 107 SatelliteNetwork.satellite1.wlan[0].mac.dcf.channelAccess.inProgressFrames queueLength:vector ETV
attr autoWarmupFilter false
attr interpolationmode sample-hold
attr recordingmode vector
attr source "warmup(count(packetEnqueued) - count(packetDequeued))"
attr title "queue length"
vector 108 SatelliteNetwork.satellite1.wlan[0].mac.dcf.channelAccess.contention backoffPeriodGenerated:vector ETV
attr interpolationmode none
attr recordingmode vector
attr title "backoff periods"
vector 109 SatelliteNetwork.satellite1.wlan[0].mac.dcf.channelAccess.contention backoffActive:vector ETV
attr autoWarmupFilter false
attr interpolationmode sample-hold
attr recordingmode vector
attr source warmup(count(backoffStarted)-count(backoffStopped))
attr title "backoff active"
vector 110 SatelliteNetwork.satellite1.wlan[0].mac.dcf.channelAccess.contention stateChanged:vector ETV
attr enum IDLE,DEFER,IFS_AND_BACKOFF
attr interpolationmode none
attr recordingmode vector
attr title "contention state changed"
attr type enum
vector 111 SatelliteNetwork.satellite1.wlan[0].mac.dcf.recipientMacDataService packetDropDuplicateDetected:vector(packetBytes) ETV
attr interpolationmode none
attr recordingmode vector(packetBytes)
attr source packetDropReasonIsDuplicateDetected(packetDropped)
attr title "packet drops: duplicate detected, packetBytes"
vector 112 SatelliteNetwork.satellite1.wlan[0].mac.dcf.recoveryProcedure contentionWindowChanged:vector ETV
attr interpolationmode sample-hold
attr recordingmode vector
attr title "contention window"
vector 113 SatelliteNetwork.satellite1.wlan[0].mac.dcf packetSentToPeer:vector(packetBytes) ETV
attr interpolationmode none
attr recordingmode vector(packetBytes)
attr title "packets sent, packetBytes"
vector 114 SatelliteNetwork.satellite1.wlan[0].mac.dcf packetSentToPeerUnicast:vector(packetBytes) ETV
attr interpolationmode none
attr recordingmode vector(packetBytes)
attr source ieee80211Unicast(packetSentToPeer)
attr title "packets sent: unicast, packetBytes"
vector 115 SatelliteNetwork.satellite1.wlan[0].mac.dcf packetSentToPeerMulticast:vector(packetBytes) ETV
attr interpolationmode none
attr recordingmode vector(packetBytes)
attr source ieee80211Multicast(packetSentToPeer)
attr title "packets sent: multicast, packetBytes"
vector 116 SatelliteNetwork.satellite1.wlan[0].mac.dcf packetSentToPeerBroadcast:vector(packetBytes) ETV
attr interpolationmode none
attr recordingmode vector(packetBytes)
attr source ieee80211Broadcast(packetSentToPeer)
attr title "packets sent: broadcast , packetBytes"
vector 117 SatelliteNetwork.satellite1.wlan[0].mac.dcf packetSentToPeerWithRetry:vector(packetBytes) ETV
attr interpolationmode none
attr recordingmode vector(packetBytes)
attr source ieee80211Retry(packetSentToPeer)
attr title "packets sent: with retry, packetBytes"
vector 118 SatelliteNetwork.satellite1.wlan[0].mac.dcf packetSentToPeerWithoutRetry:vector(packetBytes) ETV
attr interpolationmode none
attr recordingmode vector(packetBytes)
attr source ieee80211NotRetry(packetSentToPeer)
attr title "packets sent: without retry, packetBytes"
vector 119 SatelliteNetwork.satellite1.wlan[0].mac.dcf packetReceivedFromPeer:vector(packetBytes) ETV
attr interpolationmode none
attr recordingmode vector(packetBytes)
attr title "packets received, packetBytes"
vector 120 SatelliteNetwork.satellite1.wlan[0].mac.dcf packetReceivedFromPeerUnicast:vector(packetBytes) ETV
attr interpolationmode none
attr recordingmode vector(packetBytes)
attr source ieee80211Unicast(packetReceivedFromPeer)
attr title "packets received: unicast, packetBytes"
vector 121 SatelliteNetwork.satellite1.wlan[0].mac.dcf packetReceivedFromPeerMulticast:vector(packetBytes) ETV
attr interpolationmode none
attr recordingmode vector(packetBytes)
attr source ieee80211Multicast(packetReceivedFromPeer)
attr title "packets received: multicast, packetBytes"
vector 122 SatelliteNetwork.satellite1.wlan[0].mac.dcf packetReceivedFromPeerBroadcast:vector(packetBytes) ETV
attr interpolationmode none
attr recordingmode vector(packetBytes)
attr source ieee80211Broadcast(packetReceivedFromPeer)
attr title "packets received: broadcast, packetBytes"
vector 123 SatelliteNetwork.satellite1.wlan[0].mac.dcf packetReceivedFromPeerWithRetry:vector(packetBytes) ETV
attr interpolationmode none
attr recordingmode vector(packetBytes)
attr source ieee80211Retry(packetReceivedFromPeer)
attr title "packets received: with retry, packetBytes"
vector 124 SatelliteNetwork.satellite1.wlan[0].mac.dcf packetReceivedFromPeerWithoutRetry:vector(packetBytes) ETV
attr interpolationmode none
attr recordingmode vector(packetBytes)
attr source ieee80211NotRetry(packetReceivedFromPeer)
attr title "packets received: without retry, packetBytes"
vector 125 SatelliteNetwork.satellite1.wlan[0].mac.dcf packetDrop:vector(packetBytes) ETV
attr interpolationmode none
attr recordingmode vector(packetBytes)
attr source packetDropped
attr title "packet drops, packetBytes"
vector 126 SatelliteNetwork.satellite1.wlan[0].mac.dcf packetDropNotAddressedToUs:vector(packetBytes) ETV
attr interpolationmode none
attr recordingmode vector(packetBytes)
attr source packetDropReasonIsNotAddressedToUs(packetDropped)
attr title "packet drops: not addressed to us, packetBytes"
vector 127 SatelliteNetwork.satellite1.wlan[0].mac.dcf packetDropQueueOverflow:vector(packetBytes) ETV
attr interpolationmode none
attr recordingmode vector(packetBytes)
attr source packetDropReasonIsQueueOverflow(packetDropped)
attr title "packet drops: queue overflow, packetBytes"
vector 128 SatelliteNetwork.satellite1.wlan[0].mac.dcf packetDropRetryLimitReached:vector(packetBytes) ETV
attr interpolationmode none
attr recordingmode vector(packetBytes)
attr source packetDropReasonIsRetryLimitReached(packetDropped)
attr title "packet drops: retry limit reached, packetBytes"
vector 129 SatelliteNetwork.satellite1.wlan[0].mac.dcf frameSequenceActive:vector ETV
attr autoWarmupFilter false
attr interpolationmode sample-hold
attr recordingmode vector
attr source warmup(count(frameSequenceStarted)-count(frameSequenceFinished))
attr title "frame sequence active"
vector 130 SatelliteNetwork.satellite1.wlan[0].mac.dcf datarateSelected:vector ETV
attr interpolationmode none
attr recordingmode vector
attr title "datarates selected"
vector 131 SatelliteNetwork.satellite1.wlan[0].mac.rx nav:vector ETV
attr interpolationmode linear
attr recordingmode vector
attr source navChanged
attr title "network allocation vector"
vector 132 SatelliteNetwork.satellite1.wlan[0].mac packetSentToUpper:vector(packetBytes) ETV
attr interpolationmode none
attr recordingmode vector(packetBytes)
attr title "packets sent to upper layer, packetBytes"
vector 133 SatelliteNetwork.satellite1.wlan[0].mac packetSentToLower:vector(packetBytes) ETV
attr interpolationmode none
attr recordingmode vector(packetBytes)
attr title "packets sent to lower layer, packetBytes"
vector 134 SatelliteNetwork.satellite1.wlan[0].mac packetReceivedFromUpper:vector(packetBytes) ETV
attr interpolationmode none
attr recordingmode vector(packetBytes)
attr title "packets received from upper layer, packetBytes"
vector 135 SatelliteNetwork.satellite1.wlan[0].mac packetReceivedFromLower:vector(packetBytes) ETV
attr interpolationmode none
attr recordingmode vector(packetBytes)
attr title "packets received from lower layer, packetBytes"
vector 136 SatelliteNetwork.satellite1.wlan[0].mac packetDrop:vector(packetBytes) ETV
attr interpolationmode none
attr recordingmode vector(packetBytes)
attr source packetDropped
attr title "packet drops, packetBytes"
vector 137 SatelliteNetwork.satellite1.wlan[0].mac packetDropIncorrectlyReceived:vector(packetBytes) ETV
attr interpolationmode none
attr recordingmode vector(packetBytes)
attr source packetDropReasonIsIncorrectlyReceived(packetDropped)
attr title "packet drops: incorrectly received, packetBytes"
vector 138 SatelliteNetwork.satellite1.wlan[0].mac packetDropNotAddressedToUs:vector(packetBytes) ETV
attr interpolationmode none
attr recordingmode vector(packetBytes)
attr source packetDropReasonIsNotAddressedToUs(packetDropped)
attr title "packet drops: not addressed to us, packetBytes"
vector 139 SatelliteNetwork.satellite1.wlan[0].mac packetDropQueueOverflow:vector(packetBytes) ETV
attr interpolationmode none
attr recordingmode vector(packetBytes)
attr source packetDropReasonIsQueueOverflow(packetDropped)
attr title "packet drops: queue overflow, packetBytes"
vector 140 SatelliteNetwork.satellite1.wlan[0].mac packetDropRetryLimitReached:vector(packetBytes) ETV
attr interpolationmode none
attr recordingmode vector(packetBytes)
attr source packetDropReasonIsRetryLimitReached(packetDropped)
attr title "packet drops: retry limit reached, packetBytes"
vector 141 SatelliteNetwork.satellite1.wlan[0].mac packetDropDuplicateDetected:vector(packetBytes) ETV
attr interpolationmode none
attr recordingmode vector(packetBytes)
attr source packetDropReasonIsDuplicateDetected(packetDropped)
attr title "packet drops: duplicate detected, packetBytes"
vector 142 SatelliteNetwork.satellite1.wlan[0].mac packetDropOther:vector(packetBytes) ETV
attr interpolationmode none
attr recordingmode vector(packetBytes)
attr source packetDropReasonIsOther(packetDropped)
attr title "packet drops: other, packetBytes"
vector 143 SatelliteNetwork.satellite1.wlan[0].radio radioMode:vector ETV
attr interpolationmode sample-hold
attr recordingmode vector
attr source radioModeChanged
attr title "Radio mode"
vector 144 SatelliteNetwork.satellite1.wlan[0].radio receptionState:vector ETV
attr interpolationmode sample-hold
attr recordingmode vector
attr source receptionStateChanged
attr title "Radio reception state"
vector 145 SatelliteNetwork.satellite1.wlan[0].radio transmissionState:vector ETV
attr interpolationmode sample-hold
attr recordingmode vector
attr source transmissionStateChanged
attr title "Radio transmission state"
vector 146 SatelliteNetwork.satellite1.wlan[0].radio radioChannel:vector ETV
attr interpolationmode sample-hold
attr recordingmode vector
attr source radioChannelChanged
attr title "Radio channel"
vector 147 SatelliteNetwork.satellite1.wlan[0] packetDropInterfaceDown:vector(packetBytes) ETV
attr interpolationmode none
attr recordingmode vector(packetBytes)
attr source packetDropReasonIsInterfaceDown(packetDropped)
attr title "packet drops: interface down, packetBytes"
vector 148 SatelliteNetwork.satellite1.wlan[0] packetDropNoCarrier:vector(packetBytes) ETV
attr interpolationmode none
attr recordingmode vector(packetBytes)
attr source packetDropReasonIsNoCarrier(packetDropped)
attr title "packet drops: no carrier, packetBytes"
vector 149 SatelliteNetwork.satellite1.ipv4.ip packetDropAddressResolutionFailed:vector(packetBytes) ETV
attr interpolationmode none
attr recordingmode vector(packetBytes)
attr source packetDropReasonIsAddressResolutionFailed(packetDropped)
attr title "packet drop: address resolution failed, packetBytes"
vector 150 SatelliteNetwork.satellite1.ipv4.ip packetDropHopLimitReached:vector(packetBytes) ETV
attr interpolationmode none
attr recordingmode vector(packetBytes)
attr source packetDropReasonIsHopLimitReached(packetDropped)
attr title "packet drop: hop limit reached, packetBytes"
vector 151 SatelliteNetwork.satellite1.ipv4.ip packetDropForwardingDisabled:vector(packetBytes) ETV
attr interpolationmode none
attr recordingmode vector(packetBytes)
attr source packetDropReasonIsForwardingDisabled(packetDropped)
attr title "packet drop: forwarding disabled, packetBytes"
vector 152 SatelliteNetwork.satellite1.ipv4.ip packetDropNoInterfaceFound:vector(packetBytes) ETV
attr interpolationmode none
attr recordingmode vector(packetBytes)
attr source packetDropReasonIsNoInterfaceFound(packetDropped)
attr title "packet drop: no interface found, packetBytes"
vector 153 SatelliteNetwork.satellite1.ipv4.ip packetDropNoRouteFound:vector(packetBytes) ETV
attr interpolationmode none
attr recordingmode vector(packetBytes)
attr source packetDropReasonIsNoRouteFound(packetDropped)
attr title "packet drop: no route found, packetBytes"
vector 154 SatelliteNetwork.satellite1.ipv4.ip packetDropUndefined:vector(packetBytes) ETV
attr interpolationmode none
attr recordingmode vector(packetBytes)
attr source packetDropReasonIsUndefined(packetDropped)
attr title "packet drop: undefined, packetBytes"
vector 155 SatelliteNetwork.satellite1.udp packetSent:vector(packetBytes) ETV
attr interpolationmode none
attr recordingmode vector(packetBytes)
attr source packetSent
attr title "packets sent, packetBytes"
vector 156 SatelliteNetwork.satellite1.udp packetReceived:vector(packetBytes) ETV
attr interpolationmode none
attr recordingmode vector(packetBytes)
attr source packetReceived
attr title "packets received, packetBytes"
vector 157 SatelliteNetwork.satellite1.udp passedUpPk:vector(count) ETV
attr interpolationmode none
attr recordingmode vector(count)
attr source packetSentToUpper
attr title "packets passed up, count"
vector 158 SatelliteNetwork.satellite1.udp droppedPkWrongPort:vector(count) ETV
attr interpolationmode none
attr recordingmode vector(count)
attr source packetDropReasonIsNoPortFound(packetDropped)
attr title "packets dropped (wrong port), count"
vector 159 SatelliteNetwork.satellite1.udp droppedPkBadChecksum:vector(count) ETV
attr interpolationmode none
attr recordingmode vector(count)
attr source packetDropReasonIsIncorrectlyReceived(packetDropped)
attr title "packets dropped (checksum error), count"
vector 160 SatelliteNetwork.satellite1.app[1].source.provider[0] packetLengths:vector ETV
attr interpolationmode none
attr recordingmode vector
attr source packetLength(packetPulled)
attr title "packet lengths"
attr unit b
vector 161 SatelliteNetwork.satellite1.app[1].source.provider[0] dataRate:vector ETV
attr interpolationmode linear
attr recordingmode vector
attr source throughput(packetPulled)
attr title "data rate"
attr unit bps
vector 162 SatelliteNetwork.satellite1.app[1].source.provider[1] packetLengths:vector ETV
attr interpolationmode none
attr recordingmode vector
attr source packetLength(packetPulled)
attr title "packet lengths"
attr unit b
vector 163 SatelliteNetwork.satellite1.app[1].source.provider[1] dataRate:vector ETV
attr interpolationmode linear
attr recordingmode vector
attr source throughput(packetPulled)
attr title "data rate"
attr unit bps
vector 164 SatelliteNetwork.satellite1.app[1].source.server[0] incomingPacketLengths:vector ETV
attr interpolationmode none
attr recordingmode vector
attr source packetLength(packetPulled)
attr title "incoming packet lengths"
attr unit b
vector 165 SatelliteNetwork.satellite1.app[1].source.server[0] incomingDataRate:vector ETV
attr interpolationmode linear
attr recordingmode vector
attr source throughput(packetPulled)
attr title "incoming datarate"
attr unit bps
vector 166 SatelliteNetwork.satellite1.app[1].source.server[0] outgoingPacketLengths:vector ETV
attr interpolationmode none
attr recordingmode vector
attr source packetLength(packetPushed)
attr title "outgoing packet lengths"
attr unit b
vector 167 SatelliteNetwork.satellite1.app[1].source.server[0] outgoingDataRate:vector ETV
attr interpolationmode linear
attr recordingmode vector
attr source throughput(packetPushed)
attr title "outgoing datarate"
attr unit bps
vector 168 SatelliteNetwork.satellite1.app[1].source.server[0] numTokens:vector ETV
attr interpolationmode sample-hold
attr recordingmode vector
attr source "sum(tokensAdded) - sum(tokensRemoved)"
attr title "number of tokens"
attr unit tk
vector 169 SatelliteNetwork.satellite1.app[1].source.server[1] incomingPacketLengths:vector ETV
attr interpolationmode none
attr recordingmode vector
attr source packetLength(packetPulled)
attr title "incoming packet lengths"
attr unit b
vector 170 SatelliteNetwork.satellite1.app[1].source.server[1] incomingDataRate:vector ETV
attr interpolationmode linear
attr recordingmode vector
attr source throughput(packetPulled)
attr title "incoming datarate"
attr unit bps
vector 171 SatelliteNetwork.satellite1.app[1].source.server[1] outgoingPacketLengths:vector ETV
attr interpolationmode none
attr recordingmode vector
attr source packetLength(packetPushed)
attr title "outgoing packet lengths"
attr unit b
vector 172 SatelliteNetwork.satellite1.app[1].source.server[1] outgoingDataRate:vector ETV
attr interpolationmode linear
attr recordingmode vector
attr source throughput(packetPushed)
attr title "outgoing datarate"
attr unit bps
vector 173 SatelliteNetwork.satellite1.app[1].source.server[1] numTokens:vector ETV
attr interpolationmode sample-hold
attr recordingmode vector
attr source "sum(tokensAdded) - sum(tokensRemoved)"
attr title "number of tokens"
attr unit tk
vector 174 SatelliteNetwork.satellite1.app[1].source.multiplexer packetLengths:vector ETV
attr interpolationmode none
attr recordingmode vector
attr source "packetLength(merge(packetPushed, packetPulled))"
attr title "packet lengths"
attr unit b
vector 175 SatelliteNetwork.satellite1.app[1].source.multiplexer dataRate:vector ETV
attr interpolationmode linear
attr recordingmode vector
attr source "throughput(merge(packetPushed, packetPulled))"
attr title "data rate"
attr unit bps
vector 176 SatelliteNetwork.satellite1.app[1].source.tokenGenerator numTokensCreated:vector ETV
attr interpolationmode none
attr recordingmode vector
attr source tokensCreated
attr title "number of created tokens"
attr unit tk
vector 177 SatelliteNetwork.satellite1.app[1].sink.queue queueLength:vector ETV
attr autoWarmupFilter false
attr interpolationmode sample-hold
attr recordingmode vector
attr source "warmup(atomic(constant0(packetPushEnded) + count(packetPushStarted) - count(packetPulled) - count(packetRemoved) - count(packetDropped)))"
attr title "queue length"
attr unit pk
vector 178 SatelliteNetwork.satellite1.app[1].sink.queue queueBitLength:vector ETV
attr autoWarmupFilter false
attr interpolationmode sample-hold
attr recordingmode vector
attr source "warmup(atomic(constant0(packetPushEnded) + sum(packetLength(packetPushStarted)) - sum(packetLength(packetPulled)) - sum(packetLength(packetRemoved)) - sum(packetLength(packetDropped))))"
attr title "queue bit length"
attr unit b
vector 179 SatelliteNetwork.satellite1.app[1].sink.queue queueingTime:vector ETV
attr interpolationmode none
attr recordingmode vector
attr source queueingTime(packetPulled)
attr title "queueing times"
attr unit s
vector 180 SatelliteNetwork.satellite1.app[1].sink.queue incomingPacketLengths:vector ETV
attr interpolationmode none
attr recordingmode vector
attr source packetLength(packetPushStarted)
attr title "incoming packet lengths"
attr unit b
vector 181 SatelliteNetwork.satellite1.app[1].sink.queue incomingDataRate:vector ETV
attr interpolationmode linear
attr recordingmode vector
attr source throughput(packetPushStarted)
attr title "incoming datarate"
attr unit bps
vector 182 SatelliteNetwork.satellite1.app[1].sink.queue outgoingPacketLengths:vector ETV
attr interpolationmode none
attr recordingmode vector
attr source packetLength(packetPulled)
attr title "outgoing packet lengths"
attr unit b
vector 183 SatelliteNetwork.satellite1.app[1].sink.queue outgoingDataRate:vector ETV
attr interpolationmode linear
attr recordingmode vector
attr source throughput(packetPulled)
attr title "outgoing datarate"
attr unit bps
vector 184 SatelliteNetwork.satellite1.app[1].sink.queue droppedPacketLengthsQueueOverflow:vector ETV
attr interpolationmode none
attr recordingmode vector
attr source packetLength(packetDropReasonIsQueueOverflow(packetDropped))
attr title "dropped packet lengths: queue overflow"
attr unit b
vector 185 SatelliteNetwork.satellite1.app[1].sink.queue flowQueueingTime:vector ETV
attr interpolationmode none
attr recordingmode vector
attr source queueingTime(demuxFlow(packetPulled))
attr title "flow queueing times"
attr unit s
vector 186 SatelliteNetwork.satellite1.app[1].sink.queue flowIncomingDataRate:vector ETV
attr interpolationmode linear
attr recordingmode vector
attr source throughput(flowPacketLength(demuxFlow(packetPushStarted)))
attr title "flow specific incoming data rate"
attr unit bps
vector 187 SatelliteNetwork.satellite1.app[1].sink.queue flowOutgoingDataRate:vector ETV
attr interpolationmode linear
attr recordingmode vector
attr source throughput(flowPacketLength(demuxFlow(packetPulled)))
attr title "flow specific outgoing data rate"
attr unit bps
vector 188 SatelliteNetwork.satellite1.app[1].sink.server incomingPacketLengths:vector ETV
attr interpolationmode none
attr recordingmode vector
attr source packetLength(packetPulled)
attr title "incoming packet lengths"
attr unit b
vector 189 SatelliteNetwork.satellite1.app[1].sink.server incomingDataRate:vector ETV
attr interpolationmode linear
attr recordingmode vector
attr source throughput(packetPulled)
attr title "incoming datarate"
attr unit bps
vector 190 SatelliteNetwork.satellite1.app[1].sink.server outgoingPacketLengths:vector ETV
attr interpolationmode none
attr recordingmode vector
attr source packetLength(packetPushed)
attr title "outgoing packet lengths"
attr unit b
vector 191 SatelliteNetwork.satellite1.app[1].sink.server outgoingDataRate:vector ETV
attr interpolationmode linear
attr recordingmode vector
attr source throughput(packetPushed)
attr title "outgoing datarate"
attr unit bps
vector 192 SatelliteNetwork.satellite1.app[1].sink.server numTokens:vector ETV
attr interpolationmode sample-hold
attr recordingmode vector
attr source "sum(tokensAdded) - sum(tokensRemoved)"
attr title "number of tokens"
attr unit tk
vector 193 SatelliteNetwork.satellite1.app[1].sink.classifier packetLengths:vector ETV
attr interpolationmode none
attr recordingmode vector
attr source packetLength(packetPushed)
attr title "packet lengths"
attr unit b
vector 194 SatelliteNetwork.satellite1.app[1].sink.classifier dataRate:vector ETV
attr interpolationmode linear
attr recordingmode vector
attr source throughput(packetPushed)
attr title "data rate"
attr unit bps
vector 195 SatelliteNetwork.satellite1.app[1].sink.tokenGenerator[0] numTokensCreated:vector ETV
attr interpolationmode none
attr recordingmode vector
attr source tokensCreated
attr title "number of created tokens"
attr unit tk
vector 196 SatelliteNetwork.satellite1.app[1].sink.tokenGenerator[1] numTokensCreated:vector ETV
attr interpolationmode none
attr recordingmode vector
attr source tokensCreated
attr title "number of created tokens"
attr unit tk
vector 197 SatelliteNetwork.satellite1.app[1].io packetSent:vector(packetBytes) ETV
attr interpolationmode none
attr recordingmode vector(packetBytes)
attr source packetSent
attr title "packets sent, packetBytes"
vector 198 SatelliteNetwork.satellite1.app[1].io packetReceived:vector(packetBytes) ETV
attr interpolationmode none
attr recordingmode vector(packetBytes)
attr source packetReceived
attr title "packets received, packetBytes"
vector 199 SatelliteNetwork.satellite1.app[2].source packetLengths:vector ETV
attr interpolationmode none
attr recordingmode vector
attr source packetLength(packetPushed)
attr title "packet lengths"
attr unit b
vector 200 SatelliteNetwork.satellite1.app[2].source dataRate:vector ETV
attr interpolationmode linear
attr recordingmode vector
attr source throughput(packetPushed)
attr title "data rate"
attr unit bps
vector 201 SatelliteNetwork.satellite1.app[2].sink droppedPacketLengths:vector ETV
attr interpolationmode none
attr recordingmode vector
attr source packetLength(packetDropped)
attr title "dropped packet lengths"
attr unit b
vector 202 SatelliteNetwork.satellite1.app[2].sink droppedDataRate:vector ETV
attr interpolationmode linear
attr recordingmode vector
attr source throughput(packetDropped)
attr title "dropped data rate"
attr unit bps
vector 203 SatelliteNetwork.satellite1.app[2].sink packetLengths:vector ETV
attr interpolationmode none
attr recordingmode vector
attr source packetLength(packetPushed)
attr title "packet lengths"
attr unit b
vector 204 SatelliteNetwork.satellite1.app[2].sink dataRate:vector ETV
attr interpolationmode linear
attr recordingmode vector
attr source throughput(packetPushed)
attr title "data rate"
attr unit bps
vector 205 SatelliteNetwork.satellite1.app[2].sink meanBitLifeTimePerPacket:vector ETV
attr interpolationmode none
attr recordingmode vector
attr source weightedMeanPerGroup(groupRegionsPerPacket(lifeTimePerRegion(packetPushed)))
attr title "mean bit life time per packet"
attr unit s
vector 206 SatelliteNetwork.satellite1.app[2].sink packetJitter:vector ETV
attr interpolationmode none
attr recordingmode vector
attr source jitter(weightedMeanPerGroup(groupRegionsPerPacket(lifeTimePerRegion(packetPushed))))
attr title "packet jitter"
attr unit s
vector 207 SatelliteNetwork.satellite1.app[2].sink packetDelayDifferenceToMean:vector ETV
attr interpolationmode none
attr recordingmode vector
attr source differenceToMean(weightedMeanPerGroup(groupRegionsPerPacket(lifeTimePerRegion(packetPushed))))
attr title "packet delay difference to mean"
attr unit s
vector 208 SatelliteNetwork.satellite1.app[2].sink packetDelayVariation:vector ETV
attr recordingmode vector
attr source stddev(weightedMeanPerGroup(groupRegionsPerPacket(lifeTimePerRegion(packetPushed))))
attr title "packet delay variation"
attr unit s
vector 209 SatelliteNetwork.satellite1 coordX:vector ETV
attr interpolationmode linear
attr recordingmode vector
attr source xCoord(mobilityPos(mobilityStateChanged))
attr title "coord X"
vector 210 SatelliteNetwork.satellite1 coordY:vector ETV
attr interpolationmode linear
attr recordingmode vector
attr source yCoord(mobilityPos(mobilityStateChanged))
attr title "coord Y"
vector 211 SatelliteNetwork.satellite1 coordZ:vector ETV
attr interpolationmode linear
attr recordingmode vector
attr source zCoord(mobilityPos(mobilityStateChanged))
attr title "coord Z"
vector 212 SatelliteNetwork.satellite2.lo[0].lo rcvdPkFromHl:vector(packetBytes) ETV
attr interpolationmode none
attr recordingmode vector(packetBytes)
attr source packetReceivedFromUpper
attr title "packets received from higher layer, packetBytes"
vector 213 SatelliteNetwork.satellite2.lo[0].lo passedUpPk:vector(packetBytes) ETV
attr interpolationmode none
attr recordingmode vector(packetBytes)
attr source packetSentToUpper
attr title "packets passed to higher layer, packetBytes"
vector 214 SatelliteNetwork.satellite2.lo[0] packetDropInterfaceDown:vector(packetBytes) ETV
attr interpolationmode none
attr recordingmode vector(packetBytes)
attr source packetDropReasonIsInterfaceDown(packetDropped)
attr title "packet drops: interface down, packetBytes"
vector 215 SatelliteNetwork.satellite2.lo[0] packetDropNoCarrier:vector(packetBytes) ETV
attr interpolationmode none
attr recordingmode vector(packetBytes)
attr source packetDropReasonIsNoCarrier(packetDropped)
attr title "packet drops: no carrier, packetBytes"
vector 216 SatelliteNetwork.satellite2.wlan[0].mac.dcf.channelAccess.pendingQueue queueLength:vector ETV
attr autoWarmupFilter false
attr interpolationmode sample-hold
attr recordingmode vector
attr source "warmup(atomic(constant0(packetPushEnded) + count(packetPushStarted) - count(packetPulled) - count(packetRemoved) - count(packetDropped)))"
attr title "queue length"
attr unit pk
vector 217 SatelliteNetwork.satellite2.wlan[0].mac.dcf.channelAccess.pendingQueue queueBitLength:vector ETV
attr autoWarmupFilter false
attr interpolationmode sample-hold
attr recordingmode vector
attr source "warmup(atomic(constant0(packetPushEnded) + sum(packetLength(packetPushStarted)) - sum(packetLength(packetPulled)) - sum(packetLength(packetRemoved)) - sum(packetLength(packetDropped))))"
attr title "queue bit length"
attr unit b
vector 218 SatelliteNetwork.satellite2.wlan[0].mac.dcf.channelAccess.pendingQueue queueingTime:vector ETV
attr interpolationmode none
attr recordingmode vector
attr source queueingTime(packetPulled)
attr title "queueing times"
attr unit s
vector 219 SatelliteNetwork.satellite2.wlan[0].mac.dcf.channelAccess.pendingQueue incomingPacketLengths:vector ETV
attr interpolationmode none
attr recordingmode vector
attr source packetLength(packetPushStarted)
attr title "incoming packet lengths"
attr unit b
vector 220 SatelliteNetwork.satellite2.wlan[0].mac.dcf.channelAccess.pendingQueue incomingDataRate:vector ETV
attr interpolationmode linear
attr recordingmode vector
attr source throughput(packetPushStarted)
attr title "incoming datarate"
attr unit bps
vector 221 SatelliteNetwork.satellite2.wlan[0].mac.dcf.channelAccess.pendingQueue outgoingPacketLengths:vector ETV
attr interpolationmode none
attr recordingmode vector
attr source packetLength(packetPulled)
attr title "outgoing packet lengths"
attr unit b
vector 222 SatelliteNetwork.satellite2.wlan[0].mac.dcf.channelAccess.pendingQueue outgoingDataRate:vector ETV
attr interpolationmode linear
attr recordingmode vector
attr source throughput(packetPulled)
attr title "outgoing datarate"
attr unit bps
vector 223 SatelliteNetwork.satellite2.wlan[0].mac.dcf.channelAccess.pendingQueue droppedPacketLengthsQueueOverflow:vector ETV
attr interpolationmode none
attr recordingmode vector
attr source packetLength(packetDropReasonIsQueueOverflow(packetDropped))
attr title "dropped packet lengths: queue overflow"
attr unit b
vector 224 SatelliteNetwork.satellite2.wlan[0].mac.dcf.channelAccess.pendingQueue flowQueueingTime:vector ETV
attr interpolationmode none
attr recordingmode vector
attr source queueingTime(demuxFlow(packetPulled))
attr title "flow queueing times"
attr unit s
vector 225 SatelliteNetwork.satellite2.wlan[0].mac.dcf.channelAccess.pendingQueue flowIncomingDataRate:vector ETV
attr interpolationmode linear
attr recordingmode vector
attr source throughput(flowPacketLength(demuxFlow(packetPushStarted)))
attr title "flow specific incoming data rate"
attr unit bps
vector 226 SatelliteNetwork.satellite2.wlan[0].mac.dcf.channelAccess.pendingQueue flowOutgoingDataRate:vector ETV
attr interpolationmode linear
attr recordingmode vector
attr source throughput(flowPacketLength(demuxFlow(packetPulled)))
attr title "flow specific outgoing data rate"
attr unit bps
vector 227 SatelliteNetwork.satellite2.wlan[0].mac.dcf.channelAccess.inProgressFrames queueingTime:vector ETV
attr interpolationmode none
attr recordingmode vector
attr source queueingTime(packetDequeued)
attr title "queueing times"
vector 228 SatelliteNetwork.satellite2.wlan[0].mac.dcf.channelAccess.inProgressFrames queueLength:vector ETV
attr autoWarmupFilter false
attr interpolationmode sample-hold
attr recordingmode vector
attr source "warmup(count(packetEnqueued) - count(packetDequeued))"
attr title "queue length"
vector 229 SatelliteNetwork.satellite2.wlan[0].mac.dcf.channelAccess.contention backoffPeriodGenerated:vector ETV
attr interpolationmode none
attr recordingmode vector
attr title "backoff periods"
vector 230 SatelliteNetwork.satellite2.wlan[0].mac.dcf.channelAccess.contention backoffActive:vector ETV
attr autoWarmupFilter false
attr interpolationmode sample-hold
attr recordingmode vector
attr source warmup(count(backoffStarted)-count(backoffStopped))
attr title "backoff active"
vector 231 SatelliteNetwork.satellite2.wlan[0].mac.dcf.channelAccess.contention stateChanged:vector ETV
attr enum IDLE,DEFER,IFS_AND_BACKOFF
attr interpolationmode none
attr recordingmode vector
attr title "contention state changed"
attr type enum
vector 232 SatelliteNetwork.satellite2.wlan[0].mac.dcf.recipientMacDataService packetDropDuplicateDetected:vector(packetBytes) ETV
attr interpolationmode none
attr recordingmode vector(packetBytes)
attr source packetDropReasonIsDuplicateDetected(packetDropped)
attr title "packet drops: duplicate detected, packetBytes"
vector 233 SatelliteNetwork.satellite2.wlan[0].mac.dcf.recoveryProcedure contentionWindowChanged:vector ETV
attr interpolationmode sample-hold
attr recordingmode vector
attr title "contention window"
vector 234 SatelliteNetwork.satellite2.wlan[0].mac.dcf packetSentToPeer:vector(packetBytes) ETV
attr interpolationmode none
attr recordingmode vector(packetBytes)
attr title "packets sent, packetBytes"
vector 235 SatelliteNetwork.satellite2.wlan[0].mac.dcf packetSentToPeerUnicast:vector(packetBytes) ETV
attr interpolationmode none
attr recordingmode vector(packetBytes)
attr source ieee80211Unicast(packetSentToPeer)
attr title "packets sent: unicast, packetBytes"
vector 236 SatelliteNetwork.satellite2.wlan[0].mac.dcf packetSentToPeerMulticast:vector(packetBytes) ETV
attr interpolationmode none
attr recordingmode vector(packetBytes)
attr source ieee80211Multicast(packetSentToPeer)
attr title "packets sent: multicast, packetBytes"
vector 237 SatelliteNetwork.satellite2.wlan[0].mac.dcf packetSentToPeerBroadcast:vector(packetBytes) ETV
attr interpolationmode none
attr recordingmode vector(packetBytes)
attr source ieee80211Broadcast(packetSentToPeer)
attr title "packets sent: broadcast , packetBytes"
vector 238 SatelliteNetwork.satellite2.wlan[0].mac.dcf packetSentToPeerWithRetry:vector(packetBytes) ETV
attr interpolationmode none
attr recordingmode vector(packetBytes)
attr source ieee80211Retry(packetSentToPeer)
attr title "packets sent: with retry, packetBytes"
vector 239 SatelliteNetwork.satellite2.wlan[0].mac.dcf packetSentToPeerWithoutRetry:vector(packetBytes) ETV
attr interpolationmode none
attr recordingmode vector(packetBytes)
attr source ieee80211NotRetry(packetSentToPeer)
attr title "packets sent: without retry, packetBytes"
vector 240 SatelliteNetwork.satellite2.wlan[0].mac.dcf packetReceivedFromPeer:vector(packetBytes) ETV
attr interpolationmode none
attr recordingmode vector(packetBytes)
attr title "packets received, packetBytes"
vector 241 SatelliteNetwork.satellite2.wlan[0].mac.dcf packetReceivedFromPeerUnicast:vector(packetBytes) ETV
attr interpolationmode none
attr recordingmode vector(packetBytes)
attr source ieee80211Unicast(packetReceivedFromPeer)
attr title "packets received: unicast, packetBytes"
vector 242 SatelliteNetwork.satellite2.wlan[0].mac.dcf packetReceivedFromPeerMulticast:vector(packetBytes) ETV
attr interpolationmode none
attr recordingmode vector(packetBytes)
attr source ieee80211Multicast(packetReceivedFromPeer)
attr title "packets received: multicast, packetBytes"
vector 243 SatelliteNetwork.satellite2.wlan[0].mac.dcf packetReceivedFromPeerBroadcast:vector(packetBytes) ETV
attr interpolationmode none
attr recordingmode vector(packetBytes)
attr source ieee80211Broadcast(packetReceivedFromPeer)
attr title "packets received: broadcast, packetBytes"
vector 244 SatelliteNetwork.satellite2.wlan[0].mac.dcf packetReceivedFromPeerWithRetry:vector(packetBytes) ETV
attr interpolationmode none
attr recordingmode vector(packetBytes)
attr source ieee80211Retry(packetReceivedFromPeer)
attr title "packets received: with retry, packetBytes"
vector 245 SatelliteNetwork.satellite2.wlan[0].mac.dcf packetReceivedFromPeerWithoutRetry:vector(packetBytes) ETV
attr interpolationmode none
attr recordingmode vector(packetBytes)
attr source ieee80211NotRetry(packetReceivedFromPeer)
attr title "packets received: without retry, packetBytes"
vector 246 SatelliteNetwork.satellite2.wlan[0].mac.dcf packetDrop:vector(packetBytes) ETV
attr interpolationmode none
attr recordingmode vector(packetBytes)
attr source packetDropped
attr title "packet drops, packetBytes"
vector 247 SatelliteNetwork.satellite2.wlan[0].mac.dcf packetDropNotAddressedToUs:vector(packetBytes) ETV
attr interpolationmode none
attr recordingmode vector(packetBytes)
attr source packetDropReasonIsNotAddressedToUs(packetDropped)
attr title "packet drops: not addressed to us, packetBytes"
vector 248 SatelliteNetwork.satellite2.wlan[0].mac.dcf packetDropQueueOverflow:vector(packetBytes) ETV
attr interpolationmode none
attr recordingmode vector(packetBytes)
attr source packetDropReasonIsQueueOverflow(packetDropped)
attr title "packet drops: queue overflow, packetBytes"
vector 249 SatelliteNetwork.satellite2.wlan[0].mac.dcf packetDropRetryLimitReached:vector(packetBytes) ETV
attr interpolationmode none
attr recordingmode vector(packetBytes)
attr source packetDropReasonIsRetryLimitReached(packetDropped)
attr title "packet drops: retry limit reached, packetBytes"
vector 250 SatelliteNetwork.satellite2.wlan[0].mac.dcf frameSequenceActive:vector ETV
attr autoWarmupFilter false
attr interpolationmode sample-hold
attr recordingmode vector
attr source warmup(count(frameSequenceStarted)-count(frameSequenceFinished))
attr title "frame sequence active"
vector 251 SatelliteNetwork.satellite2.wlan[0].mac.dcf datarateSelected:vector ETV
attr interpolationmode none
attr recordingmode vector
attr title "datarates selected"
vector 252 SatelliteNetwork.satellite2.wlan[0].mac.rx nav:vector ETV
attr interpolationmode linear
attr recordingmode vector
attr source navChanged
attr title "network allocation vector"
vector 253 SatelliteNetwork.satellite2.wlan[0].mac packetSentToUpper:vector(packetBytes) ETV
attr interpolationmode none
attr recordingmode vector(packetBytes)
attr title "packets sent to upper layer, packetBytes"
vector 254 SatelliteNetwork.satellite2.wlan[0].mac packetSentToLower:vector(packetBytes) ETV
attr interpolationmode none
attr recordingmode vector(packetBytes)
attr title "packets sent to lower layer, packetBytes"
vector 255 SatelliteNetwork.satellite2.wlan[0].mac packetReceivedFromUpper:vector(packetBytes) ETV
attr interpolationmode none
attr recordingmode vector(packetBytes)
attr title "packets received from upper layer, packetBytes"
vector 256 SatelliteNetwork.satellite2.wlan[0].mac packetReceivedFromLower:vector(packetBytes) ETV
attr interpolationmode none
attr recordingmode vector(packetBytes)
attr title "packets received from lower layer, packetBytes"
vector 257 SatelliteNetwork.satellite2.wlan[0].mac packetDrop:vector(packetBytes) ETV
attr interpolationmode none
attr recordingmode vector(packetBytes)
attr source packetDropped
attr title "packet drops, packetBytes"
vector 258 SatelliteNetwork.satellite2.wlan[0].mac packetDropIncorrectlyReceived:vector(packetBytes) ETV
attr interpolationmode none
attr recordingmode vector(packetBytes)
attr source packetDropReasonIsIncorrectlyReceived(packetDropped)
attr title "packet drops: incorrectly received, packetBytes"
vector 259 SatelliteNetwork.satellite2.wlan[0].mac packetDropNotAddressedToUs:vector(packetBytes) ETV
attr interpolationmode none
attr recordingmode vector(packetBytes)
attr source packetDropReasonIsNotAddressedToUs(packetDropped)
attr title "packet drops: not addressed to us, packetBytes"
vector 260 SatelliteNetwork.satellite2.wlan[0].mac packetDropQueueOverflow:vector(packetBytes) ETV
attr interpolationmode none
attr recordingmode vector(packetBytes)
attr source packetDropReasonIsQueueOverflow(packetDropped)
attr title "packet drops: queue overflow, packetBytes"
vector 261 SatelliteNetwork.satellite2.wlan[0].mac packetDropRetryLimitReached:vector(packetBytes) ETV
attr interpolationmode none
attr recordingmode vector(packetBytes)
attr source packetDropReasonIsRetryLimitReached(packetDropped)
attr title "packet drops: retry limit reached, packetBytes"
vector 262 SatelliteNetwork.satellite2.wlan[0].mac packetDropDuplicateDetected:vector(packetBytes) ETV
attr interpolationmode none
attr recordingmode vector(packetBytes)
attr source packetDropReasonIsDuplicateDetected(packetDropped)
attr title "packet drops: duplicate detected, packetBytes"
vector 263 SatelliteNetwork.satellite2.wlan[0].mac packetDropOther:vector(packetBytes) ETV
attr interpolationmode none
attr recordingmode vector(packetBytes)
attr source packetDropReasonIsOther(packetDropped)
attr title "packet drops: other, packetBytes"
vector 264 SatelliteNetwork.satellite2.wlan[0].radio radioMode:vector ETV
attr interpolationmode sample-hold
attr recordingmode vector
attr source radioModeChanged
attr title "Radio mode"
vector 265 SatelliteNetwork.satellite2.wlan[0].radio receptionState:vector ETV
attr interpolationmode sample-hold
attr recordingmode vector
attr source receptionStateChanged
attr title "Radio reception state"
vector 266 SatelliteNetwork.satellite2.wlan[0].radio transmissionState:vector ETV
attr interpolationmode sample-hold
attr recordingmode vector
attr source transmissionStateChanged
attr title "Radio transmission state"
vector 267 SatelliteNetwork.satellite2.wlan[0].radio radioChannel:vector ETV
attr interpolationmode sample-hold
attr recordingmode vector
attr source radioChannelChanged
attr title "Radio channel"
vector 268 SatelliteNetwork.satellite2.wlan[0] packetDropInterfaceDown:vector(packetBytes) ETV
attr interpolationmode none
attr recordingmode vector(packetBytes)
attr source packetDropReasonIsInterfaceDown(packetDropped)
attr title "packet drops: interface down, packetBytes"
vector 269 SatelliteNetwork.satellite2.wlan[0] packetDropNoCarrier:vector(packetBytes) ETV
attr interpolationmode none
attr recordingmode vector(packetBytes)
attr source packetDropReasonIsNoCarrier(packetDropped)
attr title "packet drops: no carrier, packetBytes"
vector 270 SatelliteNetwork.satellite2.ipv4.ip packetDropAddressResolutionFailed:vector(packetBytes) ETV
attr interpolationmode none
attr recordingmode vector(packetBytes)
attr source packetDropReasonIsAddressResolutionFailed(packetDropped)
attr title "packet drop: address resolution failed, packetBytes"
vector 271 SatelliteNetwork.satellite2.ipv4.ip packetDropHopLimitReached:vector(packetBytes) ETV
attr interpolationmode none
attr recordingmode vector(packetBytes)
attr source packetDropReasonIsHopLimitReached(packetDropped)
attr title "packet drop: hop limit reached, packetBytes"
vector 272 SatelliteNetwork.satellite2.ipv4.ip packetDropForwardingDisabled:vector(packetBytes) ETV
attr interpolationmode none
attr recordingmode vector(packetBytes)
attr source packetDropReasonIsForwardingDisabled(packetDropped)
attr title "packet drop: forwarding disabled, packetBytes"
vector 273 SatelliteNetwork.satellite2.ipv4.ip packetDropNoInterfaceFound:vector(packetBytes) ETV
attr interpolationmode none
attr recordingmode vector(packetBytes)
attr source packetDropReasonIsNoInterfaceFound(packetDropped)
attr title "packet drop: no interface found, packetBytes"
vector 274 SatelliteNetwork.satellite2.ipv4.ip packetDropNoRouteFound:vector(packetBytes) ETV
attr interpolationmode none
attr recordingmode vector(packetBytes)
attr source packetDropReasonIsNoRouteFound(packetDropped)
attr title "packet drop: no route found, packetBytes"
vector 275 SatelliteNetwork.satellite2.ipv4.ip packetDropUndefined:vector(packetBytes) ETV
attr interpolationmode none
attr recordingmode vector(packetBytes)
attr source packetDropReasonIsUndefined(packetDropped)
attr title "packet drop: undefined, packetBytes"
vector 276 SatelliteNetwork.satellite2.udp packetSent:vector(packetBytes) ETV
attr interpolationmode none
attr recordingmode vector(packetBytes)
attr source packetSent
attr title "packets sent, packetBytes"
vector 277 SatelliteNetwork.satellite2.udp packetReceived:vector(packetBytes) ETV
attr interpolationmode none
attr recordingmode vector(packetBytes)
attr source packetReceived
attr title "packets received, packetBytes"
vector 278 SatelliteNetwork.satellite2.udp passedUpPk:vector(count) ETV
attr interpolationmode none
attr recordingmode vector(count)
attr source packetSentToUpper
attr title "packets passed up, count"
vector 279 SatelliteNetwork.satellite2.udp droppedPkWrongPort:vector(count) ETV
attr interpolationmode none
attr recordingmode vector(count)
attr source packetDropReasonIsNoPortFound(packetDropped)
attr title "packets dropped (wrong port), count"
vector 280 SatelliteNetwork.satellite2.udp droppedPkBadChecksum:vector(count) ETV
attr interpolationmode none
attr recordingmode vector(count)
attr source packetDropReasonIsIncorrectlyReceived(packetDropped)
attr title "packets dropped (checksum error), count"
vector 281 SatelliteNetwork.satellite2.app[1].source.provider[0] packetLengths:vector ETV
attr interpolationmode none
attr recordingmode vector
attr source packetLength(packetPulled)
attr title "packet lengths"
attr unit b
vector 282 SatelliteNetwork.satellite2.app[1].source.provider[0] dataRate:vector ETV
attr interpolationmode linear
attr recordingmode vector
attr source throughput(packetPulled)
attr title "data rate"
attr unit bps
vector 283 SatelliteNetwork.satellite2.app[1].source.provider[1] packetLengths:vector ETV
attr interpolationmode none
attr recordingmode vector
attr source packetLength(packetPulled)
attr title "packet lengths"
attr unit b
vector 284 SatelliteNetwork.satellite2.app[1].source.provider[1] dataRate:vector ETV
attr interpolationmode linear
attr recordingmode vector
attr source throughput(packetPulled)
attr title "data rate"
attr unit bps
vector 285 SatelliteNetwork.satellite2.app[1].source.server[0] incomingPacketLengths:vector ETV
attr interpolationmode none
attr recordingmode vector
attr source packetLength(packetPulled)
attr title "incoming packet lengths"
attr unit b
vector 286 SatelliteNetwork.satellite2.app[1].source.server[0] incomingDataRate:vector ETV
attr interpolationmode linear
attr recordingmode vector
attr source throughput(packetPulled)
attr title "incoming datarate"
attr unit bps
vector 287 SatelliteNetwork.satellite2.app[1].source.server[0] outgoingPacketLengths:vector ETV
attr interpolationmode none
attr recordingmode vector
attr source packetLength(packetPushed)
attr title "outgoing packet lengths"
attr unit b
[...]
331	2001	48.4	249.93507266755
331	2003	48.5	246.18269577023
331	2008	48.6	242.46858668811
331	2013	48.7	238.79538640892
331	2015	48.8	235.16570683141
331	2023	48.9	231.58212890811
331	2025	49	228.04720081008
331	2030	49.1	224.56343611502
331	2032	49.2	221.13331201991
331	2034	49.3	217.75926757956
331	2036	49.4	214.44370197229
331	2050	49.5	211.18897279392
331	2052	49.6	207.99739438138
331	2054	49.7	204.87123616706
331	2059	49.8	201.81272106506
331	2061	49.9	198.82402389058
331	2063	50	195.90726981344
331	2071	50.1	193.06453284697
331	2073	50.2	190.29783437322
331	2078	50.3	187.60914170562
331	2080	50.4	185.00036669012
331	2085	50.5	182.47336434568
331	2096	50.6	180.02993154526
331	2098	50.7	177.6718057381
331	2100	50.8	175.40066371431
331	2102	50.9	173.21812041251
331	2107	51	171.12572777153
331	2115	51.1	169.12497362683
331	2123	51.2	167.21728065263
331	2125	51.3	165.40400535019
331	2127	51.4	163.68643708334
331	2129	51.5	162.06579716156
331	2131	51.6	160.54323797162
331	2139	51.7	159.11984215813
331	2141	51.8	157.79662185367
331	2149	51.9	156.57451795916
331	2154	52	155.45439947475
331	2156	52.1	154.43706288193
331	2158	52.2	153.52323157721
331	2160	52.3	152.71355535765
331	2162	52.4	152.0086099589
331	2170	52.5	151.40889664577
331	2172	52.6	150.91484185577
331	2183	52.7	150.52679689595
331	2185	52.8	150.24503769302
331	2187	52.9	150.06976459723
331	2189	53	150.00110223982
331	2194	53.1	150.03909944447
331	2196	53.2	150.18372919255
331	2201	53.3	150.43488864233
331	2209	53.4	150.79239920212
331	2214	53.5	151.25600665725
331	2216	53.6	151.82538135085
331	2218	53.7	152.50011841824
331	2220	53.8	153.27973807482
331	2222	53.9	154.16368595725
331	2230	54	155.15133351761
331	2232	54.1	156.24197847037
331	2237	54.2	157.43484529174
331	2245	54.3	158.72908577115
331	2247	54.4	160.12377961433
331	2252	54.5	161.61793509778
331	2254	54.6	163.21048977389
331	2256	54.7	164.90031122644
331	2261	54.8	166.68619787583
331	2266	54.9	168.56687983348
331	2268	55	170.5410198048
331	2270	55.1	172.6072140401
331	2272	55.2	174.76399333278
331	2280	55.3	177.00982406401
331	2291	55.4	179.34310929322
331	2293	55.5	181.7621898937
331	2295	55.6	184.26534573229
331	2297	55.7	186.85079689253
331	2305	55.8	189.51670494033
331	2307	55.9	192.2611742312
331	2309	56	195.08225325816
331	2311	56.1	197.97793603947
331	2313	56.2	200.94616354494
331	2324	56.3	203.98482516009
331	2326	56.4	207.09176018693
331	2328	56.5	210.26475938036
331	2336	56.6	213.50156651911
331	2338	56.7	216.79988001004
331	2340	56.8	220.15735452479
331	2342	56.9	223.57160266739
331	2347	57	227.04019667193
331	2352	57.1	230.56067012883
331	2357	57.2	234.13051973866
331	2365	57.3	237.74720709211
331	2367	57.4	241.40816047503
331	2369	57.5	245.11077669706
331	2374	57.6	248.85242294269
331	2376	57.7	252.63043864337
331	2381	57.8	256.44213736935
331	2383	57.9	260.28480873995
331	2385	58	264.15572035077
331	2396	58.1	268.05211971669
331	2401	58.2	271.971236229
331	2403	58.3	275.91028312556
331	2405	58.4	279.86645947234
331	2407	58.5	283.83695215508
331	2415	58.6	287.81893787965
331	2426	58.7	291.80958517954
331	2428	58.8	295.80605642927
331	2430	58.9	299.80550986215
331	2432	59	303.80510159093
331	2434	59.1	307.80198763004
331	2442	59.2	311.79332591782
331	2444	59.3	315.77627833746
331	2452	59.4	319.74801273507
331	2454	59.5	323.70570493357
331	2456	59.6	327.64654074083
331	2461	59.7	331.56771795078
331	2463	59.8	335.46644833597
331	2471	59.9	339.3399596302
331	2476	60	343.18549749976
331	2478	60.1	347.000327502
331	2480	60.2	350.78173702968
331	2485	60.3	354.5270372398
331	2490	60.4	358.23356496559
331	2492	60.5	361.89868461019
331	2494	60.6	365.51979002075
331	2502	60.7	369.09430634156
331	2507	60.8	372.61969184498
331	2509	60.9	376.09343973875
331	2511	61	379.51307994854
331	2516	61.1	382.87618087429
331	2521	61.2	386.18035111929
331	2529	61.3	389.4232411906
331	2534	61.4	392.6025451697
331	2536	61.5	395.71600235219
331	2538	61.6	398.76139885526
331	2540	61.7	401.73656919196
331	2542	61.8	404.63939781097
331	2544	61.9	407.46782060092
331	2555	62	410.21982635814
331	2557	62.1	412.89345821671
331	2565	62.2	415.48681503998
331	2567	62.3	417.99805277238
331	2569	62.4	420.42538575067
331	2571	62.5	422.76708797369
331	2576	62.6	425.02149432965
331	2578	62.7	427.18700178013
331	2586	62.8	429.26207049998
331	2591	62.9	431.24522497222
331	2593	63	433.13505503723
331	2598	63.1	434.93021689549
331	2600	63.2	436.6294340631
331	2602	63.3	438.23149827947
331	2604	63.4	439.73527036643
331	2612	63.5	441.13968103831
331	2614	63.6	442.44373166226
331	2622	63.7	443.64649496834
331	2624	63.8	444.74711570889
331	2629	63.9	445.74481126664
331	2631	64	446.63887221124
331	2636	64.1	447.42866280369
331	2641	64.2	448.11362144841
331	2643	64.3	448.69326109256
331	2651	64.4	449.16716957238
331	2653	64.5	449.53500990624
331	2655	64.6	449.7965205343
331	2657	64.7	449.95151550447
331	2662	64.8	449.99988460462
331	2670	64.9	449.94159344101
331	2678	65	449.77668346265
331	2680	65.1	449.50527193193
331	2682	65.2	449.12755184116
331	2684	65.3	448.64379177538
331	2689	65.4	448.05433572135
331	2697	65.5	447.35960282299
331	2699	65.6	446.56008708332
331	2707	65.7	445.65635701315
331	2709	65.8	444.64905522691
331	2711	65.9	443.53889798565
331	2713	66	442.32667468772
331	2718	66.1	441.01324730751
331	2729	66.2	439.59954978246
331	2734	66.3	438.08658734904
331	2736	66.4	436.47543582787
331	2738	66.5	434.76724085883
331	2743	66.6	432.96321708634
331	2745	66.7	431.06464729573
331	2756	66.8	429.07288150109
331	2758	66.9	426.98933598525
331	2760	67	424.8154922928
331	2762	67.1	422.55289617653
331	2767	67.2	420.20315649834
331	2769	67.3	417.7679440852
331	2774	67.4	415.2489905411
331	2779	67.5	412.64808701575
331	2781	67.6	409.96708293095
331	2789	67.7	407.20788466551
331	2791	67.8	404.37245419972
331	2799	67.9	401.46280772019
331	2801	68	398.48101418626
331	2803	68.1	395.42919385879
331	2805	68.2	392.30951679253
331	2810	68.3	389.12420129304
331	2815	68.4	385.87551233933
331	2820	68.5	382.56575997334
331	2828	68.6	379.19729765726
331	2830	68.7	375.77252060013
331	2832	68.8	372.29386405466
331	2834	68.9	368.76380158558
331	2836	69	365.18484331078
331	2841	69.1	361.55953411645
331	2849	69.2	357.89045184747
331	2851	69.3	354.18020547439
331	2856	69.4	350.43143323829
331	2861	69.5	346.64680077479
331	2863	69.6	342.82899921861
331	2865	69.7	338.98074328997
331	2867	69.8	335.10476936427
331	2869	69.9	331.2038335263
331	2883	70	327.28070961049
331	2885	70.1	323.33818722854
331	2887	70.2	319.37906978578
331	2889	70.3	315.40617248779
331	2894	70.4	311.42232033857
331	2896	70.5	307.43034613176
331	2898	70.6	303.43308843636
331	2903	70.7	299.43338957829
331	2905	70.8	295.43409361932
331	2916	70.9	291.43804433471
331	2918	71	287.44808319111
331	2923	71.1	283.46704732609
331	2925	71.2	279.49776753074
331	2927	71.3	275.54306623676
331	2929	71.4	271.60575550953
331	2934	71.5	267.68863504855
331	2936	71.6	263.79449019663
331	2938	71.7	259.92608995936
331	2952	71.8	256.08618503611
331	2954	71.9	252.27750586414
331	2956	72	248.50276067702
331	2958	72.1	244.76463357893
331	2963	72.2	241.06578263608
331	2965	72.3	237.40883798659
331	2967	72.4	233.79639997034
331	2972	72.5	230.23103727993
331	2974	72.6	226.71528513412
331	2985	72.7	223.25164347519
331	2987	72.8	219.84257519126
331	2989	72.9	216.49050436499
331	2991	73	213.19781454996
331	2993	73.1	209.96684707572
331	3007	73.2	206.79989938299
331	3012	73.3	203.69922339001
331	3014	73.4	200.66702389128
331	3016	73.5	197.70545698978
331	3018	73.6	194.81662856384
331	3020	73.7	192.00259276971
331	3028	73.8	189.26535058094
331	3033	73.9	186.60684836553
331	3035	74	184.02897650189
331	3037	74.1	181.53356803474
331	3042	74.2	179.12239737161
331	3047	74.3	176.79717902114
331	3049	74.4	174.55956637396
331	3060	74.5	172.41115052698
331	3062	74.6	170.35345915206
331	3064	74.7	168.38795540969
331	3066	74.8	166.5160369086
331	3071	74.9	164.73903471195
331	3076	75	163.05821239086
331	3084	75.1	161.47476512593
332	0	0	0
332	32	0.1	0
332	34	0.2	0
332	36	0.3	0
332	38	0.4	0
332	40	0.5	0
332	42	0.6	0
332	44	0.692190854112	0
332	47	0.7	0
332	49	0.711827398394	0
332	59	0.8	0
332	61	0.9	0
332	66	1	0
332	68	1.1	0
332	70	1.2	0
332	72	1.3	0
332	77	1.4	0
332	79	1.5	0
332	84	1.6	0
332	92	1.7	0
332	97	1.8	0
332	99	1.9	0
332	101	2	0
332	106	2.1	0
332	114	2.2	0
332	116	2.3	0
332	121	2.4	0
332	126	2.5	0
332	128	2.6	0
332	130	2.7	0
332	132	2.8	0
332	134	2.9	0
332	139	3	0
332	159	3.1	0
332	164	3.2	0
332	166	3.3	0
332	168	3.4	0
332	170	3.5	0
332	172	3.6	0
332	177	3.7	0
332	179	3.8	0
332	187	3.9	0
332	195	4	0
332	197	4.1	0
332	199	4.2	0
332	201	4.3	0
332	203	4.4	0
332	211	4.5	0
332	219	4.6	0
332	224	4.7	0
332	226	4.8	0
332	228	4.9	0
332	230	5	0
332	235	5.1	0
332	243	5.2	0
332	248	5.3	0
332	253	5.4	0
332	255	5.5	0
332	257	5.6	0
332	262	5.7	0
332	264	5.8	0
332	272	5.9	0
332	274	6	0
332	279	6.1	0
332	284	6.2	0
332	286	6.3	0
332	291	6.4	0
332	293	6.5	0
332	295	6.6	0
332	297	6.7	0
332	305	6.8	0
332	310	6.9	0
332	315	7	0
332	320	7.1	0
332	322	7.2	0
332	330	7.3	0
332	332	7.4	0
332	334	7.5	0
332	339	7.6	0
332	344	7.7	0
332	349	7.8	0
332	351	7.9	0
332	353	8	0
332	361	8.1	0
332	363	8.2	0
332	368	8.3	0
332	370	8.4	0
332	372	8.5	0
332	377	8.6	0
332	379	8.7	0
332	384	8.8	0
332	392	8.9	0
332	400	9	0
332	408	9.1	0
332	413	9.2	0
332	415	9.3	0
332	417	9.4	0
332	422	9.5	0
332	424	9.6	0
332	429	9.7	0
332	437	9.8	0
332	439	9.9	0
332	441	10	0
332	446	10.1	0
332	448	10.2	0
332	456	10.3	0
332	458	10.4	0
332	463	10.5	0
332	468	10.6	0
332	470	10.7	0
332	472	10.8	0
332	480	10.9	0
332	485	11	0
332	487	11.1	0
332	489	11.2	0
332	491	11.3	0
332	496	11.4	0
332	501	11.5	0
332	503	11.6	0
332	505	11.7	0
332	516	11.8	0
332	521	11.9	0
332	523	12	0
332	525	12.1	0
332	530	12.2	0
332	532	12.3	0
332	537	12.4	0
332	545	12.5	0
332	547	12.6	0
332	549	12.7	0
332	554	12.8	0
332	559	12.9	0
332	567	13	0
332	572	13.1	0
332	574	13.2	0
332	576	13.3	0
332	578	13.4	0
332	580	13.5	0
332	585	13.6	0
332	590	13.7	0
332	601	13.8	0
332	603	13.9	0
332	605	14	0
332	607	14.1	0
332	609	14.2	0
332	614	14.3	0
332	622	14.4	0
332	624	14.5	0
332	632	14.6	0
332	634	14.7	0
332	636	14.8	0
332	641	14.9	0
332	643	15	0
332	645	15.1	0
332	650	15.2	0
332	661	15.3	0
332	663	15.4	0
332	665	15.5	0
332	667	15.6	0
332	675	15.7	0
332	680	15.8	0
332	682	15.9	0
332	684	16	0
332	692	16.1	0
332	694	16.2	0
332	699	16.3	0
332	701	16.4	0
332	703	16.5	0
332	708	16.6	0
332	710	16.7	0
332	721	16.8	0
332	723	16.9	0
332	725	17	0
332	730	17.1	0
332	732	17.2	0
332	734	17.3	0
332	742	17.4	0
332	744	17.5	0
332	746	17.6	0
332	754	17.7	0
332	756	17.8	0
332	761	17.9	0
332	766	18	0
332	768	18.1	0
332	770	18.2	0
332	775	18.3	0
332	777	18.4	0
332	782	18.5	0
332	790	18.6	0
332	792	18.7	0
332	794	18.8	0
332	799	18.9	0
332	801	19	0
332	806	19.1	0
332	808	19.2	0
332	810	19.3	0
332	818	19.4	0
332	823	19.5	0
332	825	19.6	0
332	830	19.7	0
332	832	19.8	0
332	834	19.9	0
332	836	20	0
332	841	20.1	0
332	846	20.2	0
332	854	20.3	0
332	856	20.4	0
332	861	20.5	0
332	866	20.6	0
332	868	20.7	0
332	870	20.8	0
332	875	20.9	0
332	880	21	0
332	897	21.1	0
332	899	21.2	0
332	901	21.3	0
332	906	21.4	0
332	908	21.5	0
332	913	21.6	0
332	921	21.7	0
332	926	21.8	0
332	928	21.9	0
332	930	22	0
332	932	22.1	0
332	937	22.2	0
332	939	22.3	0
332	950	22.4	0
332	952	22.5	0
332	957	22.6	0
332	959	22.7	0
332	961	22.8	0
332	963	22.9	0
332	968	23	0
332	979	23.1	0
332	981	23.2	0
332	986	23.3	0
332	988	23.4	0
332	990	23.5	0
332	992	23.6	0
332	994	23.7	0
332	999	23.8	0
332	1013	23.9	0
332	1015	24	0
332	1017	24.1	0
332	1019	24.2	0
332	1021	24.3	0
332	1026	24.4	0
332	1031	24.5	0
332	1039	24.6	0
332	1041	24.7	0
332	1046	24.8	0
332	1048	24.9	0
332	1050	25	0
332	1055	25.1	0
332	1060	25.2	0
332	1062	25.3	0
332	1064	25.4	0
332	1072	25.5	0
332	1074	25.6	0
332	1085	25.7	0
332	1087	25.8	0
332	1089	25.9	0
332	1091	26	0
332	1093	26.1	0
332	1095	26.2	0
332	1103	26.3	0
332	1108	26.4	0
332	1116	26.5	0
332	1118	26.6	0
332	1120	26.7	0
332	1125	26.8	0
332	1127	26.9	0
332	1135	27	0
332	1137	27.1	0
332	1145	27.2	0
332	1147	27.3	0
332	1149	27.4	0
332	1154	27.5	0
332	1156	27.6	0
332	1167	27.7	0
332	1172	27.8	0
332	1174	27.9	0
332	1176	28	0
332	1181	28.1	0
332	1189	28.2	0
332	1191	28.3	0
332	1196	28.4	0
332	1198	28.5	0
332	1203	28.6	0
332	1205	28.7	0
332	1210	28.8	0
332	1212	28.9	0
332	1214	29	0
332	1216	29.1	0
332	1227	29.2	0
332	1229	29.3	0
332	1231	29.4	0
332	1236	29.5	0
332	1241	29.6	0
332	1249	29.7	0
332	1251	29.8	0
332	1253	29.9	0
332	1255	30	0
332	1260	30.1	0
332	1265	30.2	0
332	1267	30.3	0
332	1269	30.4	0
332	1280	30.5	0
332	1282	30.6	0
332	1284	30.7	0
332	1286	30.8	0
332	1288	30.9	0
332	1293	31	0
332	1298	31.1	0
332	1300	31.2	0
332	1308	31.3	0
332	1310	31.4	0
332	1315	31.5	0
332	1320	31.6	0
332	1325	31.7	0
332	1327	31.8	0
332	1329	31.9	0
332	1331	32	0
332	1333	32.1	0
332	1335	32.2	0
332	1349	32.3	0
332	1354	32.4	0
332	1356	32.5	0
332	1358	32.6	0
332	1360	32.7	0
332	1368	32.8	0
332	1373	32.9	0
332	1378	33	0
332	1383	33.1	0
332	1385	33.2	0
332	1387	33.3	0
332	1389	33.4	0
332	1394	33.5	0
332	1399	33.6	0
332	1404	33.7	0
332	1412	33.8	0
332	1414	33.9	0
332	1416	34	0
332	1418	34.1	0
332	1420	34.2	0
332	1422	34.3	0
332	1430	34.4	0
332	1438	34.5	0
332	1440	34.6	0
332	1445	34.7	0
332	1447	34.8	0
332	1449	34.9	0
332	1454	35	0
332	1456	35.1	0
332	1464	35.2	0
332	1469	35.3	0
332	1471	35.4	0
332	1473	35.5	0
332	1478	35.6	0
332	1480	35.7	0
332	1482	35.8	0
332	1487	35.9	0
332	1498	36	0
332	1500	36.1	0
332	1502	36.2	0
332	1504	36.3	0
332	1512	36.4	0
332	1514	36.5	0
332	1519	36.6	0
332	1521	36.7	0
332	1523	36.8	0
332	1531	36.9	0
332	1536	37	0
332	1538	37.1	0
332	1540	37.2	0
332	1542	37.3	0
332	1550	37.4	0
332	1552	37.5	0
332	1557	37.6	0
332	1559	37.7	0
332	1567	37.8	0
332	1569	37.9	0
332	1577	38	0
332	1579	38.1	0
332	1581	38.2	0
332	1583	38.3	0
332	1588	38.4	0
332	1590	38.5	0
332	1601	38.6	0
332	1606	38.7	0
332	1608	38.8	0
332	1610	38.9	0
332	1612	39	0
332	1617	39.1	0
332	1622	39.2	0
332	1624	39.3	0
332	1626	39.4	0
332	1631	39.5	0
332	1639	39.6	0
332	1644	39.7	0
332	1649	39.8	0
332	1651	39.9	0
332	1653	40	0
332	1655	40.1	0
332	1660	40.2	0
332	1671	40.3	0
332	1676	40.4	0
332	1678	40.5	0
332	1680	40.6	0
332	1682	40.7	0
332	1684	40.8	0
332	1686	40.9	0
332	1694	41	0
332	1696	41.1	0
332	1701	41.2	0
332	1709	41.3	0
332	1711	41.4	0
332	1716	41.5	0
332	1721	41.6	0
332	1723	41.7	0
332	1725	41.8	0
332	1727	41.9	0
332	1732	42	0
332	1737	42.1	0
332	1748	42.2	0
332	1750	42.3	0
332	1752	42.4	0
332	1754	42.5	0
332	1756	42.6	0
332	1767	42.7	0
332	1769	42.8	0
332	1771	42.9	0
332	1779	43	0
332	1781	43.1	0
332	1786	43.2	0
332	1788	43.3	0
332	1790	43.4	0
332	1792	43.5	0
332	1806	43.6	0
332	1808	43.7	0
332	1810	43.8	0
332	1815	43.9	0
332	1817	44	0
332	1819	44.1	0
332	1821	44.2	0
332	1823	44.3	0
332	1834	44.4	0
332	1839	44.5	0
332	1841	44.6	0
332	1843	44.7	0
332	1845	44.8	0
332	1850	44.9	0
332	1855	45	0
332	1869	45.1	0
332	1877	45.2	0
332	1879	45.3	0
332	1881	45.4	0
332	1883	45.5	0
332	1885	45.6	0
332	1890	45.7	0
332	1895	45.8	0
332	1903	45.9	0
332	1905	46	0
332	1910	46.1	0
332	1912	46.2	0
332	1914	46.3	0
332	1922	46.4	0
332	1927	46.5	0
332	1932	46.6	0
332	1934	46.7	0
332	1936	46.8	0
332	1938	46.9	0
332	1940	47	0
332	1945	47.1	0
332	1953	47.2	0
332	1961	47.3	0
332	1963	47.4	0
332	1965	47.5	0
332	1967	47.6	0
332	1969	47.7	0
332	1974	47.8	0
332	1985	47.9	0
332	1990	48	0
332	1992	48.1	0
332	1994	48.2	0
332	1996	48.3	0
332	2001	48.4	0
332	2003	48.5	0
332	2008	48.6	0
332	2013	48.7	0
332	2015	48.8	0
332	2023	48.9	0
332	2025	49	0
332	2030	49.1	0
332	2032	49.2	0
332	2034	49.3	0
332	2036	49.4	0
332	2050	49.5	0
332	2052	49.6	0
332	2054	49.7	0
332	2059	49.8	0
332	2061	49.9	0
332	2063	50	0
332	2071	50.1	0
332	2073	50.2	0
332	2078	50.3	0
332	2080	50.4	0
332	2085	50.5	0
332	2096	50.6	0
332	2098	50.7	0
332	2100	50.8	0
332	2102	50.9	0
332	2107	51	0
332	2115	51.1	0
332	2123	51.2	0
332	2125	51.3	0
332	2127	51.4	0
332	2129	51.5	0
332	2131	51.6	0
332	2139	51.7	0
332	2141	51.8	0
332	2149	51.9	0
332	2154	52	0
332	2156	52.1	0
332	2158	52.2	0
332	2160	52.3	0
332	2162	52.4	0
332	2170	52.5	0
332	2172	52.6	0
332	2183	52.7	0
332	2185	52.8	0
332	2187	52.9	0
332	2189	53	0
332	2194	53.1	0
332	2196	53.2	0
332	2201	53.3	0
332	2209	53.4	0
332	2214	53.5	0
332	2216	53.6	0
332	2218	53.7	0
332	2220	53.8	0
332	2222	53.9	0
332	2230	54	0
332	2232	54.1	0
332	2237	54.2	0
332	2245	54.3	0
332	2247	54.4	0
332	2252	54.5	0
332	2254	54.6	0
332	2256	54.7	0
332	2261	54.8	0
332	2266	54.9	0
332	2268	55	0
332	2270	55.1	0
332	2272	55.2	0
332	2280	55.3	0
332	2291	55.4	0
332	2293	55.5	0
332	2295	55.6	0
332	2297	55.7	0
332	2305	55.8	0
332	2307	55.9	0
332	2309	56	0
332	2311	56.1	0
332	2313	56.2	0
332	2324	56.3	0
332	2326	56.4	0
332	2328	56.5	0
332	2336	56.6	0
332	2338	56.7	0
332	2340	56.8	0
332	2342	56.9	0
332	2347	57	0
332	2352	57.1	0
332	2357	57.2	0
332	2365	57.3	0
332	2367	57.4	0
332	2369	57.5	0
332	2374	57.6	0
332	2376	57.7	0
332	2381	57.8	0
332	2383	57.9	0
332	2385	58	0
332	2396	58.1	0
332	2401	58.2	0
332	2403	58.3	0
332	2405	58.4	0
332	2407	58.5	0
332	2415	58.6	0
332	2426	58.7	0
332	2428	58.8	0
332	2430	58.9	0
332	2432	59	0
332	2434	59.1	0
332	2442	59.2	0
332	2444	59.3	0
332	2452	59.4	0
332	2454	59.5	0
332	2456	59.6	0
332	2461	59.7	0
332	2463	59.8	0
332	2471	59.9	0
332	2476	60	0
332	2478	60.1	0
332	2480	60.2	0
332	2485	60.3	0
332	2490	60.4	0
332	2492	60.5	0
332	2494	60.6	0
332	2502	60.7	0
332	2507	60.8	0
332	2509	60.9	0
332	2511	61	0
332	2516	61.1	0
332	2521	61.2	0
332	2529	61.3	0
332	2534	61.4	0
332	2536	61.5	0
332	2538	61.6	0
332	2540	61.7	0
332	2542	61.8	0
332	2544	61.9	0
332	2555	62	0
332	2557	62.1	0
332	2565	62.2	0
332	2567	62.3	0
332	2569	62.4	0
332	2571	62.5	0
332	2576	62.6	0
332	2578	62.7	0
332	2586	62.8	0
332	2591	62.9	0
332	2593	63	0
332	2598	63.1	0
332	2600	63.2	0
332	2602	63.3	0
332	2604	63.4	0
332	2612	63.5	0
332	2614	63.6	0
332	2622	63.7	0
332	2624	63.8	0
332	2629	63.9	0
332	2631	64	0
332	2636	64.1	0
332	2641	64.2	0
332	2643	64.3	0
332	2651	64.4	0
332	2653	64.5	0
332	2655	64.6	0
332	2657	64.7	0
332	2662	64.8	0
332	2670	64.9	0
332	2678	65	0
332	2680	65.1	0
332	2682	65.2	0
332	2684	65.3	0
332	2689	65.4	0
332	2697	65.5	0
332	2699	65.6	0
332	2707	65.7	0
332	2709	65.8	0
332	2711	65.9	0
332	2713	66	0
332	2718	66.1	0
332	2729	66.2	0
332	2734	66.3	0
332	2736	66.4	0
332	2738	66.5	0
332	2743	66.6	0
332	2745	66.7	0
332	2756	66.8	0
332	2758	66.9	0
332	2760	67	0
332	2762	67.1	0
332	2767	67.2	0
332	2769	67.3	0
332	2774	67.4	0
332	2779	67.5	0
332	2781	67.6	0
332	2789	67.7	0
332	2791	67.8	0
332	2799	67.9	0
332	2801	68	0
332	2803	68.1	0
332	2805	68.2	0
332	2810	68.3	0
332	2815	68.4	0
332	2820	68.5	0
332	2828	68.6	0
332	2830	68.7	0
332	2832	68.8	0
332	2834	68.9	0
332	2836	69	0
332	2841	69.1	0
332	2849	69.2	0
332	2851	69.3	0
332	2856	69.4	0
332	2861	69.5	0
332	2863	69.6	0
332	2865	69.7	0
332	2867	69.8	0
332	2869	69.9	0
332	2883	70	0
332	2885	70.1	0
332	2887	70.2	0
332	2889	70.3	0
332	2894	70.4	0
332	2896	70.5	0
332	2898	70.6	0
332	2903	70.7	0
332	2905	70.8	0
332	2916	70.9	0
332	2918	71	0
332	2923	71.1	0
332	2925	71.2	0
332	2927	71.3	0
332	2929	71.4	0
332	2934	71.5	0
332	2936	71.6	0
332	2938	71.7	0
332	2952	71.8	0
332	2954	71.9	0
332	2956	72	0
332	2958	72.1	0
332	2963	72.2	0
332	2965	72.3	0
332	2967	72.4	0
332	2972	72.5	0
332	2974	72.6	0
332	2985	72.7	0
332	2987	72.8	0
332	2989	72.9	0
332	2991	73	0
332	2993	73.1	0
332	3007	73.2	0
332	3012	73.3	0
332	3014	73.4	0
332	3016	73.5	0
332	3018	73.6	0
332	3020	73.7	0
332	3028	73.8	0
332	3033	73.9	0
332	3035	74	0
332	3037	74.1	0
332	3042	74.2	0
332	3047	74.3	0
332	3049	74.4	0
332	3060	74.5	0
332	3062	74.6	0
332	3064	74.7	0
332	3066	74.8	0
332	3071	74.9	0
332	3076	75	0
332	3084	75.1	0
337	0	0	0
337	0	0	0
337	0	0	0
337	0	0	0
337	0	0	0
338	0	0	0
338	0	0	0
338	0	0	0
338	0	0	0
338	0	0	0
349	0	0	0
349	0	0	0
351	0	0	0
351	0	0	0
352	0	0	0
352	0	0	0
354	0	0	31
371	0	0	0
371	0	0	0
385	0	0	0
385	0	0	0
385	0	0	2
386	0	0	1
388	0	0	0
399	0	0	0
400	0	0	0
401	0	0	0
410	0	0	0
410	0	0	0
415	0	0	0
415	0	0	0
419	0	0	0
419	0	0	0
419	0	0	0
419	0	0	0
419	0	0	0
420	0	0	0
420	0	0	0
420	0	0	0
420	0	0	0
420	0	0	0
434	0	0	0
434	0	0	0
453	0	0	0
454	0	0	0
455	0	0	0

