version 3
run General-0-20250113-20:31:28-28980
attr configname General
attr datetime 20250113-20:31:28
attr datetimef 20250113-203128
attr experiment General
attr inifile omnetpp.ini
attr iterationvars ""
attr iterationvarsd ""
attr iterationvarsf ""
attr measurement ""
attr network leosatelliteenvironment.GroundToPoP
attr processid 28980
attr repetition 0
attr replication #0
attr resultdir results
attr runnumber 0
attr seedset 0
config image-path ../../inet4.5/images
config sim-time-limit 2000s
config output-vector-file output.vec
config output-scalar-file output.sca
config network leosatelliteenvironment.GroundToPoP
config total-stack 2MiB
config **.ipv4.arp.typename GlobalArp
config **.ipv4.networkConfigurator.addressScheme "\"auto\""
config **.fcsMode "\"computed\""
config **.crcMode "\"computed\""
config **.eth[*].typename LayeredEthernetInterface
config **.eth[*].duplexMode true
config **.eth[*].queue.typename EthernetQosQueue
config **.eth[*].queue.dataQueue.typename DropTailQueue
config **.eth[*].queue.dataQueue.packetCapacity 10
config *.configurator.assignAddresses true
config *.groundStation.wlan[0].typename Ieee80211Interface
config *.radioMedium.typename Ieee80211ScalarRadioMedium
config *.groundStation.wlan[0].radio.antenna.typename ParabolicAntenna
config *.groundStation.wlan[0].radio.antenna.beamWidth 25deg
config *.groundStation.wlan[0].radio.antenna.maxGain 10dB
config *.groundStation.wlan[0].radio.antenna.minGain -50dB
config *.groundStation.wlan[0].radio.transmitter.power 25mW
config *.groundStation.numApps 1
config *.groundStation.app[*].typename TcpSessionApp
config *.groundStation.app[*].connectAddress "\"PoP\""
config *.groundStation.app[*].connectPort 1000
config *.groundStation.app[*].sendBytes 1MiB
config *.groundStation.app[*].tOpen 1.0s
config *.groundStation.app[*].tSend 1.1s
config *.groundStation.app[*].tClose 0s
config *.PoP.numApps 1
config *.PoP.app[*].typename TcpEchoApp
config *.PoP.app[0].localAddress "\"\""
config *.PoP.app[0].localPort 1000
config *.PoP.app[0].echoFactor 2.0
config *.PoP.app[0].echoDelay 0s
config *.PoP.eth[0].dataRate default
config *.groundStation.eth[0].dataRate default
config *.PoP.eth[0].delay 0.1ms
config *.groundStation.eth[0].delay 0.1ms
config *.visualizer.*.dataLinkVisualizer.displayLinks true
config *.visualizer.*.transportConnectionVisualizer.displayConnections true
config *.visualizer.*.networkRouteVisualizer.displayRoutes true
config *.visualizer.*.packetDropVisualizer.displayPacketDrops true
config *.visualizer.*.interfaceTableVisualizer.displayInterfaceTables true
config **.debug true

par GroundToPoP.PoP.ethg$o[0].channel typename "\"inet.node.ethernet.Eth100M\""
par GroundToPoP.PoP.ethg$o[0].channel disabled false
attr mutable ""
par GroundToPoP.PoP.ethg$o[0].channel delay 5e-08s
attr mutable ""
attr unit s
par GroundToPoP.PoP.ethg$o[0].channel datarate 1e+08bps
attr mutable ""
attr unit bps
par GroundToPoP.PoP.ethg$o[0].channel ber 0
attr mutable ""
par GroundToPoP.PoP.ethg$o[0].channel per 0
attr mutable ""
par GroundToPoP.PoP.ethg$o[0].channel length 10m
attr unit m
par GroundToPoP.groundStation.ethg$o[0].channel typename "\"inet.node.ethernet.Eth100M\""
par GroundToPoP.groundStation.ethg$o[0].channel disabled false
attr mutable ""
par GroundToPoP.groundStation.ethg$o[0].channel delay 5e-08s
attr mutable ""
attr unit s
par GroundToPoP.groundStation.ethg$o[0].channel datarate 1e+08bps
attr mutable ""
attr unit bps
par GroundToPoP.groundStation.ethg$o[0].channel ber 0
attr mutable ""
par GroundToPoP.groundStation.ethg$o[0].channel per 0
attr mutable ""
par GroundToPoP.groundStation.ethg$o[0].channel length 10m
attr unit m
par GroundToPoP.visualizer.sceneVisualizer typename "\"inet.visualizer.canvas.scene.SceneCanvasVisualizer\""
par GroundToPoP.visualizer.sceneVisualizer visualizationTargetModule "\"^.^\""
par GroundToPoP.visualizer.sceneVisualizer visualizationSubjectModule "\"^.^\""
par GroundToPoP.visualizer.sceneVisualizer tags "\"\""
par GroundToPoP.visualizer.sceneVisualizer physicalEnvironmentModule "\"physicalEnvironment\""
par GroundToPoP.visualizer.sceneVisualizer networkNodeVisualizerModule "\"^.networkNodeVisualizer\""
par GroundToPoP.visualizer.sceneVisualizer axisLength "nan m"
attr mutable ""
attr unit m
par GroundToPoP.visualizer.sceneVisualizer animationSpeed 0
par GroundToPoP.visualizer.sceneVisualizer sceneMinX "nan m"
attr unit m
par GroundToPoP.visualizer.sceneVisualizer sceneMinY "nan m"
attr unit m
par GroundToPoP.visualizer.sceneVisualizer sceneMinZ "nan m"
attr unit m
par GroundToPoP.visualizer.sceneVisualizer sceneMaxX "nan m"
attr unit m
par GroundToPoP.visualizer.sceneVisualizer sceneMaxY "nan m"
attr unit m
par GroundToPoP.visualizer.sceneVisualizer sceneMaxZ "nan m"
attr unit m
par GroundToPoP.visualizer.sceneVisualizer zIndex 0
par GroundToPoP.visualizer.sceneVisualizer viewAngle "\"x right y down z out\""
attr mutable ""
par GroundToPoP.visualizer.sceneVisualizer viewScale "\"1 1\""
attr mutable ""
par GroundToPoP.visualizer.sceneVisualizer viewTranslation "\"0 0\""
attr mutable ""
par GroundToPoP.visualizer.sceneVisualizer descriptionFigure "\"\""
par GroundToPoP.visualizer.physicalEnvironmentVisualizer typename "\"inet.visualizer.canvas.environment.PhysicalEnvironmentCanvasVisualizer\""
par GroundToPoP.visualizer.physicalEnvironmentVisualizer visualizationTargetModule "\"^.^\""
par GroundToPoP.visualizer.physicalEnvironmentVisualizer visualizationSubjectModule "\"^.^\""
par GroundToPoP.visualizer.physicalEnvironmentVisualizer tags "\"\""
par GroundToPoP.visualizer.physicalEnvironmentVisualizer physicalEnvironmentModule "\"physicalEnvironment\""
par GroundToPoP.visualizer.physicalEnvironmentVisualizer displayObjects true
par GroundToPoP.visualizer.physicalEnvironmentVisualizer zIndex 0
par GroundToPoP.visualizer.networkNodeVisualizer typename "\"inet.visualizer.canvas.scene.NetworkNodeCanvasVisualizer\""
par GroundToPoP.visualizer.networkNodeVisualizer visualizationTargetModule "\"^.^\""
par GroundToPoP.visualizer.networkNodeVisualizer visualizationSubjectModule "\"^.^\""
par GroundToPoP.visualizer.networkNodeVisualizer tags "\"\""
par GroundToPoP.visualizer.networkNodeVisualizer nodeFilter "\"*\""
attr mutable ""
par GroundToPoP.visualizer.networkNodeVisualizer annotationSpacing 4
par GroundToPoP.visualizer.networkNodeVisualizer placementPenalty 10
par GroundToPoP.visualizer.networkNodeVisualizer zIndex 0
par GroundToPoP.visualizer.networkConnectionVisualizer typename "\"inet.visualizer.canvas.scene.NetworkConnectionCanvasVisualizer\""
par GroundToPoP.visualizer.networkConnectionVisualizer visualizationTargetModule "\"^.^\""
par GroundToPoP.visualizer.networkConnectionVisualizer visualizationSubjectModule "\"^.^\""
par GroundToPoP.visualizer.networkConnectionVisualizer tags "\"\""
par GroundToPoP.visualizer.networkConnectionVisualizer displayNetworkConnections true
par GroundToPoP.visualizer.networkConnectionVisualizer nodeFilter "\"\""
attr mutable ""
par GroundToPoP.visualizer.networkConnectionVisualizer lineColor "\"black\""
par GroundToPoP.visualizer.networkConnectionVisualizer lineStyle "\"solid\""
par GroundToPoP.visualizer.networkConnectionVisualizer lineWidth 1
par GroundToPoP.visualizer.networkConnectionVisualizer zIndex 0
par GroundToPoP.visualizer.mobilityVisualizer typename "\"inet.visualizer.canvas.mobility.MobilityCanvasVisualizer\""
par GroundToPoP.visualizer.mobilityVisualizer visualizationTargetModule "\"^.^\""
par GroundToPoP.visualizer.mobilityVisualizer visualizationSubjectModule "\"^.^\""
par GroundToPoP.visualizer.mobilityVisualizer tags "\"\""
par GroundToPoP.visualizer.mobilityVisualizer networkNodeVisualizerModule "\"^.networkNodeVisualizer\""
par GroundToPoP.visualizer.mobilityVisualizer displayMobility true
par GroundToPoP.visualizer.mobilityVisualizer animationSpeed 0
par GroundToPoP.visualizer.mobilityVisualizer moduleFilter "\"**.mobility\""
attr mutable ""
par GroundToPoP.visualizer.mobilityVisualizer displayPositions false
par GroundToPoP.visualizer.mobilityVisualizer positionCircleRadius 4
par GroundToPoP.visualizer.mobilityVisualizer positionCircleLineWidth 1
par GroundToPoP.visualizer.mobilityVisualizer positionCircleLineColor "\"dark\""
par GroundToPoP.visualizer.mobilityVisualizer positionCircleFillColor "\"dark\""
par GroundToPoP.visualizer.mobilityVisualizer displayOrientations false
par GroundToPoP.visualizer.mobilityVisualizer orientationPieRadius 32
par GroundToPoP.visualizer.mobilityVisualizer orientationPieSize 0.2
par GroundToPoP.visualizer.mobilityVisualizer orientationPieOpacity 0.25
par GroundToPoP.visualizer.mobilityVisualizer orientationLineColor "\"black\""
par GroundToPoP.visualizer.mobilityVisualizer orientationLineStyle "\"solid\""
par GroundToPoP.visualizer.mobilityVisualizer orientationLineWidth 1
par GroundToPoP.visualizer.mobilityVisualizer orientationFillColor "\"blue\""
par GroundToPoP.visualizer.mobilityVisualizer displayVelocities false
par GroundToPoP.visualizer.mobilityVisualizer velocityArrowScale 1
par GroundToPoP.visualizer.mobilityVisualizer velocityLineColor "\"black\""
par GroundToPoP.visualizer.mobilityVisualizer velocityLineStyle "\"solid\""
par GroundToPoP.visualizer.mobilityVisualizer velocityLineWidth 1
par GroundToPoP.visualizer.mobilityVisualizer displayMovementTrails false
par GroundToPoP.visualizer.mobilityVisualizer movementTrailLineColor "\"dark\""
par GroundToPoP.visualizer.mobilityVisualizer movementTrailLineStyle "\"solid\""
par GroundToPoP.visualizer.mobilityVisualizer movementTrailLineWidth 1
par GroundToPoP.visualizer.mobilityVisualizer trailLength 100
par GroundToPoP.visualizer.mobilityVisualizer zIndex 0
par GroundToPoP.visualizer.statisticVisualizer typename "\"inet.visualizer.canvas.common.StatisticCanvasVisualizer\""
par GroundToPoP.visualizer.statisticVisualizer visualizationTargetModule "\"^.^\""
par GroundToPoP.visualizer.statisticVisualizer visualizationSubjectModule "\"^.^\""
par GroundToPoP.visualizer.statisticVisualizer tags "\"\""
par GroundToPoP.visualizer.statisticVisualizer networkNodeVisualizerModule "\"^.networkNodeVisualizer\""
par GroundToPoP.visualizer.statisticVisualizer displayStatistics true
par GroundToPoP.visualizer.statisticVisualizer signalName "\"\""
par GroundToPoP.visualizer.statisticVisualizer statisticName "\"\""
par GroundToPoP.visualizer.statisticVisualizer statisticUnit "\"\""
par GroundToPoP.visualizer.statisticVisualizer statisticExpression "\"\""
par GroundToPoP.visualizer.statisticVisualizer sourceFilter "\"**\""
attr mutable ""
par GroundToPoP.visualizer.statisticVisualizer format "\"%n: %v %u\""
attr mutable ""
par GroundToPoP.visualizer.statisticVisualizer unit "\"\""
par GroundToPoP.visualizer.statisticVisualizer font "\"<default>\""
par GroundToPoP.visualizer.statisticVisualizer textColor "\"black\""
par GroundToPoP.visualizer.statisticVisualizer backgroundColor "\"white\""
par GroundToPoP.visualizer.statisticVisualizer opacity 1
par GroundToPoP.visualizer.statisticVisualizer placementHint "\"top\""
par GroundToPoP.visualizer.statisticVisualizer placementPriority 0
par GroundToPoP.visualizer.statisticVisualizer zIndex 10
par GroundToPoP.visualizer.statisticVisualizer propertyName "\"\""
par GroundToPoP.visualizer.statisticVisualizer propertyIndex "\"\""
par GroundToPoP.visualizer.infoVisualizer typename "\"inet.visualizer.canvas.common.InfoCanvasVisualizer\""
par GroundToPoP.visualizer.infoVisualizer visualizationTargetModule "\"^.^\""
par GroundToPoP.visualizer.infoVisualizer visualizationSubjectModule "\"^.^\""
par GroundToPoP.visualizer.infoVisualizer tags "\"\""
par GroundToPoP.visualizer.infoVisualizer networkNodeVisualizerModule "\"^.networkNodeVisualizer\""
par GroundToPoP.visualizer.infoVisualizer displayInfos true
par GroundToPoP.visualizer.infoVisualizer modules "\"\""
attr mutable ""
par GroundToPoP.visualizer.infoVisualizer format "\"%t\""
attr mutable ""
par GroundToPoP.visualizer.infoVisualizer font "\"<default>\""
par GroundToPoP.visualizer.infoVisualizer textColor "\"black\""
par GroundToPoP.visualizer.infoVisualizer backgroundColor "\"white\""
par GroundToPoP.visualizer.infoVisualizer opacity 1
par GroundToPoP.visualizer.infoVisualizer placementHint "\"top\""
par GroundToPoP.visualizer.infoVisualizer placementPriority 0
par GroundToPoP.visualizer.infoVisualizer zIndex 10
par GroundToPoP.visualizer.energyStorageVisualizer typename "\"inet.visualizer.canvas.power.EnergyStorageCanvasVisualizer\""
par GroundToPoP.visualizer.energyStorageVisualizer visualizationTargetModule "\"^.^\""
par GroundToPoP.visualizer.energyStorageVisualizer visualizationSubjectModule "\"^.^\""
par GroundToPoP.visualizer.energyStorageVisualizer tags "\"\""
par GroundToPoP.visualizer.energyStorageVisualizer networkNodeVisualizerModule "\"^.networkNodeVisualizer\""
par GroundToPoP.visualizer.energyStorageVisualizer displayEnergyStorages false
par GroundToPoP.visualizer.energyStorageVisualizer energyStorageFilter "\"**\""
par GroundToPoP.visualizer.energyStorageVisualizer color "\"green\""
par GroundToPoP.visualizer.energyStorageVisualizer width 8
par GroundToPoP.visualizer.energyStorageVisualizer height 24
par GroundToPoP.visualizer.energyStorageVisualizer spacing 2
par GroundToPoP.visualizer.energyStorageVisualizer placementHint "\"right\""
par GroundToPoP.visualizer.energyStorageVisualizer placementPriority 0
par GroundToPoP.visualizer.energyStorageVisualizer zIndex 10
par GroundToPoP.visualizer.mediumVisualizer typename "\"inet.visualizer.canvas.physicallayer.MediumCanvasVisualizer\""
par GroundToPoP.visualizer.mediumVisualizer visualizationTargetModule "\"^.^\""
par GroundToPoP.visualizer.mediumVisualizer visualizationSubjectModule "\"^.^\""
par GroundToPoP.visualizer.mediumVisualizer tags "\"\""
par GroundToPoP.visualizer.mediumVisualizer mediumModule "\"radioMedium\""
par GroundToPoP.visualizer.mediumVisualizer networkNodeVisualizerModule "\"^.networkNodeVisualizer\""
par GroundToPoP.visualizer.mediumVisualizer nodeFilter "\"*\""
attr mutable ""
par GroundToPoP.visualizer.mediumVisualizer interfaceFilter "\"*\""
attr mutable ""
par GroundToPoP.visualizer.mediumVisualizer packetFilter "(omnetpp::cValueHolder)holder: \"*\""
attr mutable ""
par GroundToPoP.visualizer.mediumVisualizer displaySignals false
par GroundToPoP.visualizer.mediumVisualizer signalColor "\"dark\""
par GroundToPoP.visualizer.mediumVisualizer signalPropagationAnimationSpeed "nan "
attr mutable ""
par GroundToPoP.visualizer.mediumVisualizer signalPropagationAnimationTime 1s
attr unit s
par GroundToPoP.visualizer.mediumVisualizer signalPropagationAdditionalTime 0s
attr unit s
par GroundToPoP.visualizer.mediumVisualizer signalTransmissionAnimationSpeed "nan "
attr mutable ""
par GroundToPoP.visualizer.mediumVisualizer signalTransmissionAnimationTime 1s
attr unit s
par GroundToPoP.visualizer.mediumVisualizer signalAnimationSpeedChangeTimeMode "\"realTime\""
attr enum realTime,animationTime,simulationTime
par GroundToPoP.visualizer.mediumVisualizer signalAnimationSpeedChangeTime 1s
attr unit s
par GroundToPoP.visualizer.mediumVisualizer displaySignalDepartures false
par GroundToPoP.visualizer.mediumVisualizer signalDepartureImage "\"misc/signal_departure.png\""
par GroundToPoP.visualizer.mediumVisualizer signalDeparturePlacementHint "\"topCenter\""
par GroundToPoP.visualizer.mediumVisualizer signalDeparturePlacementPriority 1
par GroundToPoP.visualizer.mediumVisualizer displaySignalArrivals false
par GroundToPoP.visualizer.mediumVisualizer signalArrivalImage "\"misc/signal_arrival.png\""
par GroundToPoP.visualizer.mediumVisualizer signalArrivalPlacementHint "\"topCenter\""
par GroundToPoP.visualizer.mediumVisualizer signalArrivalPlacementPriority -1
par GroundToPoP.visualizer.mediumVisualizer displayCommunicationRanges false
par GroundToPoP.visualizer.mediumVisualizer communicationRangeLineColor "\"blue\""
par GroundToPoP.visualizer.mediumVisualizer communicationRangeLineStyle "\"solid\""
par GroundToPoP.visualizer.mediumVisualizer communicationRangeLineWidth 1
par GroundToPoP.visualizer.mediumVisualizer displayInterferenceRanges false
par GroundToPoP.visualizer.mediumVisualizer interferenceRangeLineColor "\"gray\""
par GroundToPoP.visualizer.mediumVisualizer interferenceRangeLineStyle "\"solid\""
par GroundToPoP.visualizer.mediumVisualizer interferenceRangeLineWidth 1
par GroundToPoP.visualizer.mediumVisualizer autoPowerAxis true
par GroundToPoP.visualizer.mediumVisualizer signalMinPower "inf dBmW"
attr unit dBmW
par GroundToPoP.visualizer.mediumVisualizer signalMaxPower 0dBmW
attr unit dBmW
par GroundToPoP.visualizer.mediumVisualizer signalMinPowerDensity "inf dBmWpMHz"
attr unit dBmWpMHz
par GroundToPoP.visualizer.mediumVisualizer signalMaxPowerDensity "-inf dBmWpMHz"
attr unit dBmWpMHz
par GroundToPoP.visualizer.mediumVisualizer autoTimeAxis true
par GroundToPoP.visualizer.mediumVisualizer signalMinTime 0s
attr unit s
par GroundToPoP.visualizer.mediumVisualizer signalMaxTime 0s
attr unit s
par GroundToPoP.visualizer.mediumVisualizer autoFrequencyAxis true
par GroundToPoP.visualizer.mediumVisualizer signalMinFrequency "inf Hz"
attr unit Hz
par GroundToPoP.visualizer.mediumVisualizer signalMaxFrequency "-inf Hz"
attr unit Hz
par GroundToPoP.visualizer.mediumVisualizer displayMainPowerDensityMap false
par GroundToPoP.visualizer.mediumVisualizer mainPowerDensityMapPixmapDensity 1
par GroundToPoP.visualizer.mediumVisualizer mainPowerDensityMapMinX 0
par GroundToPoP.visualizer.mediumVisualizer mainPowerDensityMapMaxX "nan "
par GroundToPoP.visualizer.mediumVisualizer mainPowerDensityMapMinY 0
par GroundToPoP.visualizer.mediumVisualizer mainPowerDensityMapMaxY "nan "
par GroundToPoP.visualizer.mediumVisualizer mainPowerDensityMapZ 0
par GroundToPoP.visualizer.mediumVisualizer mainPowerDensityMapFigureXTickCount 3
par GroundToPoP.visualizer.mediumVisualizer mainPowerDensityMapFigureYTickCount 3
par GroundToPoP.visualizer.mediumVisualizer displayPowerDensityMaps false
par GroundToPoP.visualizer.mediumVisualizer powerDensityMapMode "\"auto\""
attr enum total,signal,auto
par GroundToPoP.visualizer.mediumVisualizer powerDensityMapPixelMode "\"mean\""
attr enum sample,partition,mean
par GroundToPoP.visualizer.mediumVisualizer powerDensityMapApproximationSize 10
par GroundToPoP.visualizer.mediumVisualizer powerDensityMapCenterFrequency "nan Hz"
attr mutable ""
attr unit Hz
par GroundToPoP.visualizer.mediumVisualizer powerDensityMapBandwidth 0Hz
attr mutable ""
attr unit Hz
par GroundToPoP.visualizer.mediumVisualizer powerDensityMapFigureWidth 200
par GroundToPoP.visualizer.mediumVisualizer powerDensityMapFigureHeight 120
par GroundToPoP.visualizer.mediumVisualizer powerDensityMapPixmapWidth 200
par GroundToPoP.visualizer.mediumVisualizer powerDensityMapPixmapHeight 120
par GroundToPoP.visualizer.mediumVisualizer powerDensityMapZ 0
par GroundToPoP.visualizer.mediumVisualizer powerDensityMapFigureXTickCount 3
par GroundToPoP.visualizer.mediumVisualizer powerDensityMapFigureYTickCount 3
par GroundToPoP.visualizer.mediumVisualizer displaySpectrums false
par GroundToPoP.visualizer.mediumVisualizer spectrumMode "\"auto\""
attr enum total,signal,auto
par GroundToPoP.visualizer.mediumVisualizer spectrumFigureWidth 200
par GroundToPoP.visualizer.mediumVisualizer spectrumFigureHeight 120
par GroundToPoP.visualizer.mediumVisualizer spectrumFigureXTickCount 3
par GroundToPoP.visualizer.mediumVisualizer spectrumFigureYTickCount 5
par GroundToPoP.visualizer.mediumVisualizer spectrumFigureInterpolationSize 5
par GroundToPoP.visualizer.mediumVisualizer spectrumPlacementHint "\"bottomCenter\""
par GroundToPoP.visualizer.mediumVisualizer spectrumPlacementPriority -1
par GroundToPoP.visualizer.mediumVisualizer displaySpectrograms false
par GroundToPoP.visualizer.mediumVisualizer spectrogramMode "\"auto\""
attr enum total,signal,auto
par GroundToPoP.visualizer.mediumVisualizer spectrogramPixelMode "\"mean\""
attr enum sample,partition,mean
par GroundToPoP.visualizer.mediumVisualizer spectrogramFigureWidth 200
par GroundToPoP.visualizer.mediumVisualizer spectrogramFigureHeight 120
par GroundToPoP.visualizer.mediumVisualizer spectrogramPixmapWidth 200
par GroundToPoP.visualizer.mediumVisualizer spectrogramPixmapHeight 120
par GroundToPoP.visualizer.mediumVisualizer spectrogramFigureXTickCount 3
par GroundToPoP.visualizer.mediumVisualizer spectrogramFigureYTickCount 5
par GroundToPoP.visualizer.mediumVisualizer spectrogramPlacementHint "\"bottomCenter\""
par GroundToPoP.visualizer.mediumVisualizer spectrogramPlacementPriority -1
par GroundToPoP.visualizer.mediumVisualizer zIndex 0
par GroundToPoP.visualizer.mediumVisualizer signalShape "\"ring\""
attr enum ring,sphere
par GroundToPoP.visualizer.mediumVisualizer signalOpacity 0.5
par GroundToPoP.visualizer.mediumVisualizer signalRingCount 20
par GroundToPoP.visualizer.mediumVisualizer signalRingSize 50m
attr unit m
par GroundToPoP.visualizer.mediumVisualizer signalFadingDistance 50m
attr unit m
par GroundToPoP.visualizer.mediumVisualizer signalFadingFactor 1.2
par GroundToPoP.visualizer.mediumVisualizer signalWaveCount 20
par GroundToPoP.visualizer.mediumVisualizer signalWaveLength 50m
attr unit m
par GroundToPoP.visualizer.mediumVisualizer signalWaveWidth 10m
attr unit m
par GroundToPoP.visualizer.mediumVisualizer signalWaveFadingAnimationSpeedFactor 1
par GroundToPoP.visualizer.mediumVisualizer displayCommunicationHeat false
par GroundToPoP.visualizer.obstacleLossVisualizer typename "\"inet.visualizer.canvas.physicallayer.TracingObstacleLossCanvasVisualizer\""
par GroundToPoP.visualizer.obstacleLossVisualizer visualizationTargetModule "\"^.^\""
par GroundToPoP.visualizer.obstacleLossVisualizer visualizationSubjectModule "\"^.^\""
par GroundToPoP.visualizer.obstacleLossVisualizer tags "\"\""
par GroundToPoP.visualizer.obstacleLossVisualizer displayIntersections false
par GroundToPoP.visualizer.obstacleLossVisualizer intersectionLineColor "\"red\""
par GroundToPoP.visualizer.obstacleLossVisualizer intersectionLineStyle "\"solid\""
par GroundToPoP.visualizer.obstacleLossVisualizer intersectionLineWidth 1
par GroundToPoP.visualizer.obstacleLossVisualizer displayFaceNormalVectors false
par GroundToPoP.visualizer.obstacleLossVisualizer faceNormalLineColor "\"grey\""
par GroundToPoP.visualizer.obstacleLossVisualizer faceNormalLineStyle "\"solid\""
par GroundToPoP.visualizer.obstacleLossVisualizer faceNormalLineWidth 1
par GroundToPoP.visualizer.obstacleLossVisualizer fadeOutMode "\"realTime\""
attr enum realTime,animationTime,simulationTime
par GroundToPoP.visualizer.obstacleLossVisualizer fadeOutTime 1s
attr unit s
par GroundToPoP.visualizer.obstacleLossVisualizer fadeOutAnimationSpeed 0
par GroundToPoP.visualizer.obstacleLossVisualizer zIndex 0
par GroundToPoP.visualizer.packetDropVisualizer typename "\"inet.visualizer.canvas.common.PacketDropCanvasVisualizer\""
par GroundToPoP.visualizer.packetDropVisualizer visualizationTargetModule "\"^.^\""
par GroundToPoP.visualizer.packetDropVisualizer visualizationSubjectModule "\"^.^\""
par GroundToPoP.visualizer.packetDropVisualizer tags "\"\""
par GroundToPoP.visualizer.packetDropVisualizer displayPacketDrops false
par GroundToPoP.visualizer.packetDropVisualizer nodeFilter "\"*\""
attr mutable ""
par GroundToPoP.visualizer.packetDropVisualizer interfaceFilter "\"*\""
attr mutable ""
par GroundToPoP.visualizer.packetDropVisualizer packetFilter "(omnetpp::cValueHolder)holder: \"*\""
attr mutable ""
par GroundToPoP.visualizer.packetDropVisualizer detailsFilter "\"*\""
attr mutable ""
par GroundToPoP.visualizer.packetDropVisualizer icon "\"msg/packet_s\""
par GroundToPoP.visualizer.packetDropVisualizer iconTintAmount 1
par GroundToPoP.visualizer.packetDropVisualizer iconTintColor "\"dark\""
par GroundToPoP.visualizer.packetDropVisualizer labelFormat "\"%n\""
attr mutable ""
par GroundToPoP.visualizer.packetDropVisualizer labelFont "\"<default>\""
par GroundToPoP.visualizer.packetDropVisualizer labelColor "\"black\""
par GroundToPoP.visualizer.packetDropVisualizer fadeOutMode "\"realTime\""
attr enum realTime,animationTime,simulationTime
par GroundToPoP.visualizer.packetDropVisualizer fadeOutTime 1s
attr unit s
par GroundToPoP.visualizer.packetDropVisualizer fadeOutAnimationSpeed 0
par GroundToPoP.visualizer.packetDropVisualizer zIndex 10
par GroundToPoP.visualizer.packetDropVisualizer dx 32
par GroundToPoP.visualizer.packetDropVisualizer dy 64
par GroundToPoP.visualizer.packetFlowVisualizer typename "\"inet.visualizer.canvas.flow.PacketFlowCanvasVisualizer\""
par GroundToPoP.visualizer.packetFlowVisualizer visualizationTargetModule "\"^.^\""
par GroundToPoP.visualizer.packetFlowVisualizer visualizationSubjectModule "\"^.^\""
par GroundToPoP.visualizer.packetFlowVisualizer tags "\"\""
par GroundToPoP.visualizer.packetFlowVisualizer displayRoutes false
par GroundToPoP.visualizer.packetFlowVisualizer startPathSignal "\"packetFlowStarted\""
par GroundToPoP.visualizer.packetFlowVisualizer extendPathSignal "\"packetReceivedFromLower\""
par GroundToPoP.visualizer.packetFlowVisualizer endPathSignal "\"packetFlowEnded\""
par GroundToPoP.visualizer.packetFlowVisualizer nodeFilter "\"*\""
attr mutable ""
par GroundToPoP.visualizer.packetFlowVisualizer packetFilter "(omnetpp::cValueHolder)holder: \"*\""
attr mutable ""
par GroundToPoP.visualizer.packetFlowVisualizer lineColor "\"dark\""
par GroundToPoP.visualizer.packetFlowVisualizer lineStyle "\"dashed\""
par GroundToPoP.visualizer.packetFlowVisualizer lineWidth 3
par GroundToPoP.visualizer.packetFlowVisualizer lineSmooth false
par GroundToPoP.visualizer.packetFlowVisualizer lineShift 16
par GroundToPoP.visualizer.packetFlowVisualizer lineShiftMode "\"normal\""
par GroundToPoP.visualizer.packetFlowVisualizer lineContactSpacing 3
par GroundToPoP.visualizer.packetFlowVisualizer lineContactMode "\"rectangular\""
attr enum circular,rectangular
par GroundToPoP.visualizer.packetFlowVisualizer labelFormat "\"%L %p pk (%l)\""
par GroundToPoP.visualizer.packetFlowVisualizer labelFont "\"<default>, 8px\""
par GroundToPoP.visualizer.packetFlowVisualizer labelColor "\"\""
par GroundToPoP.visualizer.packetFlowVisualizer fadeOutMode "\"realTime\""
attr enum realTime,animationTime,simulationTime
par GroundToPoP.visualizer.packetFlowVisualizer fadeOutTime 0s
attr unit s
par GroundToPoP.visualizer.packetFlowVisualizer fadeOutAnimationSpeed 0
par GroundToPoP.visualizer.packetFlowVisualizer zIndex 4
par GroundToPoP.visualizer.queueVisualizer typename "\"inet.visualizer.canvas.common.QueueCanvasVisualizer\""
par GroundToPoP.visualizer.queueVisualizer visualizationTargetModule "\"^.^\""
par GroundToPoP.visualizer.queueVisualizer visualizationSubjectModule "\"^.^\""
par GroundToPoP.visualizer.queueVisualizer tags "\"\""
par GroundToPoP.visualizer.queueVisualizer networkNodeVisualizerModule "\"^.networkNodeVisualizer\""
par GroundToPoP.visualizer.queueVisualizer displayQueues false
par GroundToPoP.visualizer.queueVisualizer queueFilter "\"**\""
par GroundToPoP.visualizer.queueVisualizer color "\"blue\""
par GroundToPoP.visualizer.queueVisualizer width 8
par GroundToPoP.visualizer.queueVisualizer height 24
par GroundToPoP.visualizer.queueVisualizer spacing 2
par GroundToPoP.visualizer.queueVisualizer placementHint "\"right\""
par GroundToPoP.visualizer.queueVisualizer placementPriority 0
par GroundToPoP.visualizer.queueVisualizer zIndex 10
par GroundToPoP.visualizer.gateScheduleVisualizer typename "\"inet.visualizer.canvas.common.GateScheduleCanvasVisualizer\""
par GroundToPoP.visualizer.gateScheduleVisualizer visualizationTargetModule "\"^.^\""
par GroundToPoP.visualizer.gateScheduleVisualizer visualizationSubjectModule "\"^.^\""
par GroundToPoP.visualizer.gateScheduleVisualizer tags "\"\""
par GroundToPoP.visualizer.gateScheduleVisualizer networkNodeVisualizerModule "\"^.networkNodeVisualizer\""
par GroundToPoP.visualizer.gateScheduleVisualizer displayGateSchedules false
par GroundToPoP.visualizer.gateScheduleVisualizer labelFormat "\"%i %D\""
par GroundToPoP.visualizer.gateScheduleVisualizer gateFilter "\"**\""
par GroundToPoP.visualizer.gateScheduleVisualizer width 100
par GroundToPoP.visualizer.gateScheduleVisualizer height 8
par GroundToPoP.visualizer.gateScheduleVisualizer spacing 2
par GroundToPoP.visualizer.gateScheduleVisualizer placementHint "\"right\""
par GroundToPoP.visualizer.gateScheduleVisualizer placementPriority 0
par GroundToPoP.visualizer.gateScheduleVisualizer displayDuration 0s
attr mutable ""
attr unit s
par GroundToPoP.visualizer.gateScheduleVisualizer currentTimePosition 50
par GroundToPoP.visualizer.gateScheduleVisualizer zIndex 10
par GroundToPoP.visualizer.radioVisualizer typename "\"inet.visualizer.canvas.physicallayer.RadioCanvasVisualizer\""
par GroundToPoP.visualizer.radioVisualizer visualizationTargetModule "\"^.^\""
par GroundToPoP.visualizer.radioVisualizer visualizationSubjectModule "\"^.^\""
par GroundToPoP.visualizer.radioVisualizer tags "\"\""
par GroundToPoP.visualizer.radioVisualizer networkNodeVisualizerModule "\"^.networkNodeVisualizer\""
par GroundToPoP.visualizer.radioVisualizer displayRadios false
par GroundToPoP.visualizer.radioVisualizer displayRadioMode true
par GroundToPoP.visualizer.radioVisualizer displayReceptionState true
par GroundToPoP.visualizer.radioVisualizer displayTransmissionState true
par GroundToPoP.visualizer.radioVisualizer displayAntennaLobes false
par GroundToPoP.visualizer.radioVisualizer radioFilter "\"**\""
attr mutable ""
par GroundToPoP.visualizer.radioVisualizer radioModeImages "\"block/process_vs block/timer_vs block/wrx_vs block/wtx_vs block/wrxtx_vs block/cogwheel_vs\""
par GroundToPoP.visualizer.radioVisualizer receptionStateImages "\"- - misc/receiving misc/receiving\""
par GroundToPoP.visualizer.radioVisualizer transmissionStateImages "\"- - misc/transmitting\""
par GroundToPoP.visualizer.radioVisualizer width 16
par GroundToPoP.visualizer.radioVisualizer height 16
par GroundToPoP.visualizer.radioVisualizer placementHint "\"bottomRight\""
par GroundToPoP.visualizer.radioVisualizer placementPriority 0
par GroundToPoP.visualizer.radioVisualizer antennaLobeNormalize false
par GroundToPoP.visualizer.radioVisualizer antennaLobeRelativeLabels false
par GroundToPoP.visualizer.radioVisualizer antennaLobePlaneGlobal true
par GroundToPoP.visualizer.radioVisualizer antennaLobePlane "\"view\""
attr enum view,xy,xz,yz
par GroundToPoP.visualizer.radioVisualizer antennaLobeMode "\"logarithmic\""
attr enum logarithmic,linear
par GroundToPoP.visualizer.radioVisualizer antennaLobeLogarithmicBase 10
par GroundToPoP.visualizer.radioVisualizer antennaLobeLogarithmicScale 100
par GroundToPoP.visualizer.radioVisualizer antennaLobeRadius 100
par GroundToPoP.visualizer.radioVisualizer antennaLobeStep 10deg
attr unit deg
par GroundToPoP.visualizer.radioVisualizer antennaLobeOpacity 0.25
par GroundToPoP.visualizer.radioVisualizer antennaLobeLineSmooth true
par GroundToPoP.visualizer.radioVisualizer antennaLobeLineColor "\"black\""
par GroundToPoP.visualizer.radioVisualizer antennaLobeLineStyle "\"solid\""
par GroundToPoP.visualizer.radioVisualizer antennaLobeLineWidth 1
par GroundToPoP.visualizer.radioVisualizer antennaLobeFillColor "\"white\""
par GroundToPoP.visualizer.radioVisualizer zIndex 10
par GroundToPoP.visualizer.physicalLinkVisualizer typename "\"inet.visualizer.canvas.physicallayer.PhysicalLinkCanvasVisualizer\""
par GroundToPoP.visualizer.physicalLinkVisualizer visualizationTargetModule "\"^.^\""
par GroundToPoP.visualizer.physicalLinkVisualizer visualizationSubjectModule "\"^.^\""
par GroundToPoP.visualizer.physicalLinkVisualizer tags "\"\""
par GroundToPoP.visualizer.physicalLinkVisualizer displayLinks false
par GroundToPoP.visualizer.physicalLinkVisualizer activityLevel "\"service\""
attr enum service,peer,protocol
par GroundToPoP.visualizer.physicalLinkVisualizer nodeFilter "\"*\""
attr mutable ""
par GroundToPoP.visualizer.physicalLinkVisualizer interfaceFilter "\"*\""
attr mutable ""
par GroundToPoP.visualizer.physicalLinkVisualizer packetFilter "(omnetpp::cValueHolder)holder: \"*\""
attr mutable ""
par GroundToPoP.visualizer.physicalLinkVisualizer lineColor "\"olive\""
par GroundToPoP.visualizer.physicalLinkVisualizer lineStyle "\"dotted\""
par GroundToPoP.visualizer.physicalLinkVisualizer lineWidth 3
par GroundToPoP.visualizer.physicalLinkVisualizer lineShift 16
par GroundToPoP.visualizer.physicalLinkVisualizer lineShiftMode "\"normal\""
par GroundToPoP.visualizer.physicalLinkVisualizer lineContactSpacing 3
par GroundToPoP.visualizer.physicalLinkVisualizer lineContactMode "\"rectangular\""
attr enum circular,rectangular
par GroundToPoP.visualizer.physicalLinkVisualizer labelFormat "\"%n\""
par GroundToPoP.visualizer.physicalLinkVisualizer labelFont "\"<default>, 8px\""
par GroundToPoP.visualizer.physicalLinkVisualizer labelColor "\"olive\""
par GroundToPoP.visualizer.physicalLinkVisualizer fadeOutMode "\"realTime\""
attr enum realTime,animationTime,simulationTime
par GroundToPoP.visualizer.physicalLinkVisualizer fadeOutTime 1s
attr unit s
par GroundToPoP.visualizer.physicalLinkVisualizer fadeOutAnimationSpeed 0
par GroundToPoP.visualizer.physicalLinkVisualizer holdAnimationTime 0s
attr unit s
par GroundToPoP.visualizer.physicalLinkVisualizer zIndex 1
par GroundToPoP.visualizer.interfaceTableVisualizer typename "\"inet.visualizer.canvas.linklayer.InterfaceTableCanvasVisualizer\""
par GroundToPoP.visualizer.interfaceTableVisualizer visualizationTargetModule "\"^.^\""
par GroundToPoP.visualizer.interfaceTableVisualizer visualizationSubjectModule "\"^.^\""
par GroundToPoP.visualizer.interfaceTableVisualizer tags "\"\""
par GroundToPoP.visualizer.interfaceTableVisualizer networkNodeVisualizerModule "\"^.networkNodeVisualizer\""
par GroundToPoP.visualizer.interfaceTableVisualizer displayInterfaceTables false
par GroundToPoP.visualizer.interfaceTableVisualizer displayWiredInterfacesAtConnections true
par GroundToPoP.visualizer.interfaceTableVisualizer displayBackground false
par GroundToPoP.visualizer.interfaceTableVisualizer nodeFilter "\"*\""
attr mutable ""
par GroundToPoP.visualizer.interfaceTableVisualizer interfaceFilter "\"not(lo*)\""
attr mutable ""
par GroundToPoP.visualizer.interfaceTableVisualizer format "\"%N %\\\\%a%/%l\""
attr mutable ""
par GroundToPoP.visualizer.interfaceTableVisualizer placementHint "\"top\""
par GroundToPoP.visualizer.interfaceTableVisualizer placementPriority 0
par GroundToPoP.visualizer.interfaceTableVisualizer font "\"<default>\""
par GroundToPoP.visualizer.interfaceTableVisualizer textColor "\"#005030\""
par GroundToPoP.visualizer.interfaceTableVisualizer backgroundColor "\"white\""
par GroundToPoP.visualizer.interfaceTableVisualizer opacity 1
par GroundToPoP.visualizer.interfaceTableVisualizer zIndex 10
par GroundToPoP.visualizer.dataLinkVisualizer typename "\"inet.visualizer.canvas.linklayer.DataLinkCanvasVisualizer\""
par GroundToPoP.visualizer.dataLinkVisualizer visualizationTargetModule "\"^.^\""
par GroundToPoP.visualizer.dataLinkVisualizer visualizationSubjectModule "\"^.^\""
par GroundToPoP.visualizer.dataLinkVisualizer tags "\"\""
par GroundToPoP.visualizer.dataLinkVisualizer displayLinks false
par GroundToPoP.visualizer.dataLinkVisualizer activityLevel "\"service\""
attr enum service,peer,protocol
par GroundToPoP.visualizer.dataLinkVisualizer nodeFilter "\"*\""
attr mutable ""
par GroundToPoP.visualizer.dataLinkVisualizer interfaceFilter "\"*\""
attr mutable ""
par GroundToPoP.visualizer.dataLinkVisualizer packetFilter "(omnetpp::cValueHolder)holder: \"*\""
attr mutable ""
par GroundToPoP.visualizer.dataLinkVisualizer lineColor "\"darkcyan\""
par GroundToPoP.visualizer.dataLinkVisualizer lineStyle "\"solid\""
par GroundToPoP.visualizer.dataLinkVisualizer lineWidth 3
par GroundToPoP.visualizer.dataLinkVisualizer lineShift 16
par GroundToPoP.visualizer.dataLinkVisualizer lineShiftMode "\"normal\""
par GroundToPoP.visualizer.dataLinkVisualizer lineContactSpacing 3
par GroundToPoP.visualizer.dataLinkVisualizer lineContactMode "\"rectangular\""
attr enum circular,rectangular
par GroundToPoP.visualizer.dataLinkVisualizer labelFormat "\"%n\""
par GroundToPoP.visualizer.dataLinkVisualizer labelFont "\"<default>, 8px\""
par GroundToPoP.visualizer.dataLinkVisualizer labelColor "\"darkcyan\""
par GroundToPoP.visualizer.dataLinkVisualizer fadeOutMode "\"realTime\""
attr enum realTime,animationTime,simulationTime
par GroundToPoP.visualizer.dataLinkVisualizer fadeOutTime 1s
attr unit s
par GroundToPoP.visualizer.dataLinkVisualizer fadeOutAnimationSpeed 0
par GroundToPoP.visualizer.dataLinkVisualizer holdAnimationTime 0s
attr unit s
par GroundToPoP.visualizer.dataLinkVisualizer zIndex 2
par GroundToPoP.visualizer.linkBreakVisualizer typename "\"inet.visualizer.canvas.linklayer.LinkBreakCanvasVisualizer\""
par GroundToPoP.visualizer.linkBreakVisualizer visualizationTargetModule "\"^.^\""
par GroundToPoP.visualizer.linkBreakVisualizer visualizationSubjectModule "\"^.^\""
par GroundToPoP.visualizer.linkBreakVisualizer tags "\"\""
par GroundToPoP.visualizer.linkBreakVisualizer displayLinkBreaks false
par GroundToPoP.visualizer.linkBreakVisualizer nodeFilter "\"*\""
attr mutable ""
par GroundToPoP.visualizer.linkBreakVisualizer interfaceFilter "\"*\""
attr mutable ""
par GroundToPoP.visualizer.linkBreakVisualizer packetFilter "(omnetpp::cValueHolder)holder: \"*\""
attr mutable ""
par GroundToPoP.visualizer.linkBreakVisualizer icon "\"status/stop\""
par GroundToPoP.visualizer.linkBreakVisualizer iconTintAmount 0
par GroundToPoP.visualizer.linkBreakVisualizer iconTintColor "\"\""
par GroundToPoP.visualizer.linkBreakVisualizer fadeOutMode "\"realTime\""
attr enum realTime,animationTime,simulationTime
par GroundToPoP.visualizer.linkBreakVisualizer fadeOutTime 1s
attr unit s
par GroundToPoP.visualizer.linkBreakVisualizer fadeOutAnimationSpeed 0
par GroundToPoP.visualizer.linkBreakVisualizer zIndex 2
par GroundToPoP.visualizer.ieee80211Visualizer typename "\"inet.visualizer.canvas.linklayer.Ieee80211CanvasVisualizer\""
par GroundToPoP.visualizer.ieee80211Visualizer visualizationTargetModule "\"^.^\""
par GroundToPoP.visualizer.ieee80211Visualizer visualizationSubjectModule "\"^.^\""
par GroundToPoP.visualizer.ieee80211Visualizer tags "\"\""
par GroundToPoP.visualizer.ieee80211Visualizer networkNodeVisualizerModule "\"^.networkNodeVisualizer\""
par GroundToPoP.visualizer.ieee80211Visualizer displayAssociations false
par GroundToPoP.visualizer.ieee80211Visualizer nodeFilter "\"*\""
attr mutable ""
par GroundToPoP.visualizer.ieee80211Visualizer interfaceFilter "\"*\""
attr mutable ""
par GroundToPoP.visualizer.ieee80211Visualizer minPower -85dBm
attr unit dBm
par GroundToPoP.visualizer.ieee80211Visualizer maxPower -50dBm
attr unit dBm
par GroundToPoP.visualizer.ieee80211Visualizer icons "\"misc/signal_power_0 misc/signal_power_1 misc/signal_power_2 misc/signal_power_3\""
par GroundToPoP.visualizer.ieee80211Visualizer iconColor "\"dark\""
par GroundToPoP.visualizer.ieee80211Visualizer labelFont "\"<default>\""
par GroundToPoP.visualizer.ieee80211Visualizer labelColor "\"black\""
par GroundToPoP.visualizer.ieee80211Visualizer placementHint "\"top\""
par GroundToPoP.visualizer.ieee80211Visualizer placementPriority 0
par GroundToPoP.visualizer.ieee80211Visualizer zIndex 2
par GroundToPoP.visualizer.networkRouteVisualizer typename "\"inet.visualizer.canvas.networklayer.NetworkRouteCanvasVisualizer\""
par GroundToPoP.visualizer.networkRouteVisualizer visualizationTargetModule "\"^.^\""
par GroundToPoP.visualizer.networkRouteVisualizer visualizationSubjectModule "\"^.^\""
par GroundToPoP.visualizer.networkRouteVisualizer tags "\"\""
par GroundToPoP.visualizer.networkRouteVisualizer displayRoutes false
par GroundToPoP.visualizer.networkRouteVisualizer startPathSignal "\"packetReceivedFromUpper\""
par GroundToPoP.visualizer.networkRouteVisualizer extendPathSignal "\"packetReceivedFromLower\""
par GroundToPoP.visualizer.networkRouteVisualizer endPathSignal "\"packetSentToUpper\""
par GroundToPoP.visualizer.networkRouteVisualizer nodeFilter "\"*\""
attr mutable ""
par GroundToPoP.visualizer.networkRouteVisualizer packetFilter "(omnetpp::cValueHolder)holder: \"*\""
attr mutable ""
par GroundToPoP.visualizer.networkRouteVisualizer lineColor "\"dark\""
par GroundToPoP.visualizer.networkRouteVisualizer lineStyle "\"solid\""
par GroundToPoP.visualizer.networkRouteVisualizer lineWidth 3
par GroundToPoP.visualizer.networkRouteVisualizer lineSmooth false
par GroundToPoP.visualizer.networkRouteVisualizer lineShift 16
par GroundToPoP.visualizer.networkRouteVisualizer lineShiftMode "\"normal\""
par GroundToPoP.visualizer.networkRouteVisualizer lineContactSpacing 3
par GroundToPoP.visualizer.networkRouteVisualizer lineContactMode "\"rectangular\""
attr enum circular,rectangular
par GroundToPoP.visualizer.networkRouteVisualizer labelFormat "\"%n\""
par GroundToPoP.visualizer.networkRouteVisualizer labelFont "\"<default>, 8px\""
par GroundToPoP.visualizer.networkRouteVisualizer labelColor "\"\""
par GroundToPoP.visualizer.networkRouteVisualizer fadeOutMode "\"realTime\""
attr enum realTime,animationTime,simulationTime
par GroundToPoP.visualizer.networkRouteVisualizer fadeOutTime 1s
attr unit s
par GroundToPoP.visualizer.networkRouteVisualizer fadeOutAnimationSpeed 0
par GroundToPoP.visualizer.networkRouteVisualizer zIndex 3
par GroundToPoP.visualizer.routingTableVisualizer typename "\"inet.visualizer.canvas.networklayer.RoutingTableCanvasVisualizer\""
par GroundToPoP.visualizer.routingTableVisualizer visualizationTargetModule "\"^.^\""
par GroundToPoP.visualizer.routingTableVisualizer visualizationSubjectModule "\"^.^\""
par GroundToPoP.visualizer.routingTableVisualizer tags "\"\""
par GroundToPoP.visualizer.routingTableVisualizer displayRoutingTables false
par GroundToPoP.visualizer.routingTableVisualizer displayRoutesIndividually true
par GroundToPoP.visualizer.routingTableVisualizer displayLabels true
par GroundToPoP.visualizer.routingTableVisualizer destinationFilter "\"*\""
attr mutable ""
par GroundToPoP.visualizer.routingTableVisualizer nodeFilter "\"*\""
attr mutable ""
par GroundToPoP.visualizer.routingTableVisualizer lineColor "\"black\""
par GroundToPoP.visualizer.routingTableVisualizer lineStyle "\"solid\""
par GroundToPoP.visualizer.routingTableVisualizer lineWidth 2
par GroundToPoP.visualizer.routingTableVisualizer lineShift 16
par GroundToPoP.visualizer.routingTableVisualizer lineShiftMode "\"normal\""
par GroundToPoP.visualizer.routingTableVisualizer lineContactSpacing 3
par GroundToPoP.visualizer.routingTableVisualizer lineContactMode "\"rectangular\""
attr enum circular,rectangular
par GroundToPoP.visualizer.routingTableVisualizer labelFormat "\"%d/%m -> %g (%n)\""
attr mutable ""
par GroundToPoP.visualizer.routingTableVisualizer labelFont "\"<default>, 8px\""
par GroundToPoP.visualizer.routingTableVisualizer labelColor "\"black\""
par GroundToPoP.visualizer.routingTableVisualizer zIndex 0
par GroundToPoP.visualizer.transportRouteVisualizer typename "\"inet.visualizer.canvas.transportlayer.TransportRouteCanvasVisualizer\""
par GroundToPoP.visualizer.transportRouteVisualizer visualizationTargetModule "\"^.^\""
par GroundToPoP.visualizer.transportRouteVisualizer visualizationSubjectModule "\"^.^\""
par GroundToPoP.visualizer.transportRouteVisualizer tags "\"\""
par GroundToPoP.visualizer.transportRouteVisualizer displayRoutes false
par GroundToPoP.visualizer.transportRouteVisualizer startPathSignal "\"packetReceivedFromUpper\""
par GroundToPoP.visualizer.transportRouteVisualizer extendPathSignal "\"packetReceivedFromLower\""
par GroundToPoP.visualizer.transportRouteVisualizer endPathSignal "\"packetSentToUpper\""
par GroundToPoP.visualizer.transportRouteVisualizer nodeFilter "\"*\""
attr mutable ""
par GroundToPoP.visualizer.transportRouteVisualizer packetFilter "(omnetpp::cValueHolder)holder: \"*\""
attr mutable ""
par GroundToPoP.visualizer.transportRouteVisualizer lineColor "\"dark\""
par GroundToPoP.visualizer.transportRouteVisualizer lineStyle "\"solid\""
par GroundToPoP.visualizer.transportRouteVisualizer lineWidth 3
par GroundToPoP.visualizer.transportRouteVisualizer lineSmooth false
par GroundToPoP.visualizer.transportRouteVisualizer lineShift 16
par GroundToPoP.visualizer.transportRouteVisualizer lineShiftMode "\"normal\""
par GroundToPoP.visualizer.transportRouteVisualizer lineContactSpacing 3
par GroundToPoP.visualizer.transportRouteVisualizer lineContactMode "\"rectangular\""
attr enum circular,rectangular
par GroundToPoP.visualizer.transportRouteVisualizer labelFormat "\"%n\""
par GroundToPoP.visualizer.transportRouteVisualizer labelFont "\"<default>, 8px\""
par GroundToPoP.visualizer.transportRouteVisualizer labelColor "\"\""
par GroundToPoP.visualizer.transportRouteVisualizer fadeOutMode "\"realTime\""
attr enum realTime,animationTime,simulationTime
par GroundToPoP.visualizer.transportRouteVisualizer fadeOutTime 1s
attr unit s
par GroundToPoP.visualizer.transportRouteVisualizer fadeOutAnimationSpeed 0
par GroundToPoP.visualizer.transportRouteVisualizer zIndex 4
par GroundToPoP.visualizer.transportConnectionVisualizer typename "\"inet.visualizer.canvas.transportlayer.TransportConnectionCanvasVisualizer\""
par GroundToPoP.visualizer.transportConnectionVisualizer visualizationTargetModule "\"^.^\""
par GroundToPoP.visualizer.transportConnectionVisualizer visualizationSubjectModule "\"^.^\""
par GroundToPoP.visualizer.transportConnectionVisualizer tags "\"\""
par GroundToPoP.visualizer.transportConnectionVisualizer networkNodeVisualizerModule "\"^.networkNodeVisualizer\""
par GroundToPoP.visualizer.transportConnectionVisualizer displayTransportConnections false
par GroundToPoP.visualizer.transportConnectionVisualizer sourceNodeFilter "\"*\""
attr mutable ""
par GroundToPoP.visualizer.transportConnectionVisualizer sourcePortFilter "\"*\""
attr mutable ""
par GroundToPoP.visualizer.transportConnectionVisualizer destinationNodeFilter "\"*\""
attr mutable ""
par GroundToPoP.visualizer.transportConnectionVisualizer destinationPortFilter "\"*\""
attr mutable ""
par GroundToPoP.visualizer.transportConnectionVisualizer icon "\"misc/marker_s\""
par GroundToPoP.visualizer.transportConnectionVisualizer iconColor "\"dark\""
par GroundToPoP.visualizer.transportConnectionVisualizer labelFont "\"<default>\""
par GroundToPoP.visualizer.transportConnectionVisualizer labelColor "\"black\""
par GroundToPoP.visualizer.transportConnectionVisualizer placementHint "\"top\""
par GroundToPoP.visualizer.transportConnectionVisualizer placementPriority 0
par GroundToPoP.visualizer.transportConnectionVisualizer zIndex 4
par GroundToPoP.visualizer.failureProtectionConfigurationVisualizer typename "\"inet.visualizer.canvas.configurator.FailureProtectionConfigurationCanvasVisualizer\""
par GroundToPoP.visualizer.failureProtectionConfigurationVisualizer visualizationTargetModule "\"^.^\""
par GroundToPoP.visualizer.failureProtectionConfigurationVisualizer visualizationSubjectModule "\"^.^\""
par GroundToPoP.visualizer.failureProtectionConfigurationVisualizer tags "\"\""
par GroundToPoP.visualizer.failureProtectionConfigurationVisualizer displayTrees false
par GroundToPoP.visualizer.failureProtectionConfigurationVisualizer lineColor "\"dark\""
par GroundToPoP.visualizer.failureProtectionConfigurationVisualizer lineStyle "\"solid\""
par GroundToPoP.visualizer.failureProtectionConfigurationVisualizer lineWidth 3
par GroundToPoP.visualizer.failureProtectionConfigurationVisualizer lineSmooth false
par GroundToPoP.visualizer.failureProtectionConfigurationVisualizer lineShift 16
par GroundToPoP.visualizer.failureProtectionConfigurationVisualizer lineShiftMode "\"normal\""
par GroundToPoP.visualizer.failureProtectionConfigurationVisualizer lineContactSpacing 3
par GroundToPoP.visualizer.failureProtectionConfigurationVisualizer lineContactMode "\"rectangular\""
attr enum circular,rectangular
par GroundToPoP.visualizer.failureProtectionConfigurationVisualizer failureProtectionConfiguratorModule "\"failureProtectionConfigurator\""
par GroundToPoP.visualizer.failureProtectionConfigurationVisualizer streamFilter "\"*\""
par GroundToPoP.visualizer.failureProtectionConfigurationVisualizer zIndex 3
par GroundToPoP.visualizer.streamRedundancyConfigurationVisualizer typename "\"inet.visualizer.canvas.configurator.StreamRedundancyConfigurationCanvasVisualizer\""
par GroundToPoP.visualizer.streamRedundancyConfigurationVisualizer visualizationTargetModule "\"^.^\""
par GroundToPoP.visualizer.streamRedundancyConfigurationVisualizer visualizationSubjectModule "\"^.^\""
par GroundToPoP.visualizer.streamRedundancyConfigurationVisualizer tags "\"\""
par GroundToPoP.visualizer.streamRedundancyConfigurationVisualizer displayTrees false
par GroundToPoP.visualizer.streamRedundancyConfigurationVisualizer lineColor "\"dark\""
par GroundToPoP.visualizer.streamRedundancyConfigurationVisualizer lineStyle "\"solid\""
par GroundToPoP.visualizer.streamRedundancyConfigurationVisualizer lineWidth 3
par GroundToPoP.visualizer.streamRedundancyConfigurationVisualizer lineSmooth false
par GroundToPoP.visualizer.streamRedundancyConfigurationVisualizer lineShift 16
par GroundToPoP.visualizer.streamRedundancyConfigurationVisualizer lineShiftMode "\"normal\""
par GroundToPoP.visualizer.streamRedundancyConfigurationVisualizer lineContactSpacing 3
par GroundToPoP.visualizer.streamRedundancyConfigurationVisualizer lineContactMode "\"rectangular\""
attr enum circular,rectangular
par GroundToPoP.visualizer.streamRedundancyConfigurationVisualizer streamRedundancyConfiguratorModule "\"streamRedundancyConfigurator\""
par GroundToPoP.visualizer.streamRedundancyConfigurationVisualizer streamFilter "\"*\""
par GroundToPoP.visualizer.streamRedundancyConfigurationVisualizer zIndex 3
par GroundToPoP.visualizer typename "\"inet.visualizer.canvas.integrated.IntegratedCanvasVisualizer\""
par GroundToPoP.configurator typename "\"inet.networklayer.configurator.ipv4.Ipv4NetworkConfigurator\""
par GroundToPoP.configurator minLinkWeight 0.001
par GroundToPoP.configurator configureIsolatedNetworksSeparatly false
par GroundToPoP.configurator config "<config>...</config> at content:1"
par GroundToPoP.configurator assignAddresses true
par GroundToPoP.configurator assignUniqueAddresses true
par GroundToPoP.configurator assignDisjunctSubnetAddresses false
par GroundToPoP.configurator addStaticRoutes true
par GroundToPoP.configurator addDefaultRoutes true
par GroundToPoP.configurator addSubnetRoutes true
par GroundToPoP.configurator addDirectRoutes true
par GroundToPoP.configurator optimizeRoutes true
par GroundToPoP.configurator dumpTopology false
par GroundToPoP.configurator dumpLinks false
par GroundToPoP.configurator dumpAddresses false
par GroundToPoP.configurator dumpRoutes false
par GroundToPoP.configurator dumpConfig "\"\""
par GroundToPoP.radioMedium.propagation typename "\"inet.physicallayer.wireless.common.propagation.ConstantSpeedPropagation\""
par GroundToPoP.radioMedium.propagation propagationSpeed 2.99792e+08mps
attr unit mps
par GroundToPoP.radioMedium.propagation ignoreMovementDuringTransmission true
par GroundToPoP.radioMedium.propagation ignoreMovementDuringPropagation true
par GroundToPoP.radioMedium.propagation ignoreMovementDuringReception true
scalar GroundToPoP.radioMedium.propagation "Arrival computation count" 6
par GroundToPoP.radioMedium.analogModel typename "\"inet.physicallayer.wireless.common.analogmodel.packetlevel.ScalarAnalogModel\""
par GroundToPoP.radioMedium.analogModel ignorePartialInterference false
par GroundToPoP.radioMedium.backgroundNoise typename "\"inet.physicallayer.wireless.common.backgroundnoise.IsotropicScalarBackgroundNoise\""
par GroundToPoP.radioMedium.backgroundNoise power -110dBm
attr unit dBm
par GroundToPoP.radioMedium.backgroundNoise bandwidth "nan Hz"
attr unit Hz
par GroundToPoP.radioMedium.pathLoss typename "\"inet.physicallayer.wireless.common.pathloss.FreeSpacePathLoss\""
par GroundToPoP.radioMedium.pathLoss alpha 2
par GroundToPoP.radioMedium.pathLoss systemLoss 0dB
attr unit dB
par GroundToPoP.radioMedium.mediumLimitCache typename "\"inet.physicallayer.wireless.common.medium.MediumLimitCache\""
par GroundToPoP.radioMedium.mediumLimitCache centerFrequency 2.4e+09Hz
attr unit Hz
par GroundToPoP.radioMedium.mediumLimitCache maxSpeed "nan mps"
attr unit mps
par GroundToPoP.radioMedium.mediumLimitCache maxTransmissionPower "nan W"
attr unit W
par GroundToPoP.radioMedium.mediumLimitCache minInterferencePower -110dBm
attr unit dBm
par GroundToPoP.radioMedium.mediumLimitCache minReceptionPower -85dBm
attr unit dBm
par GroundToPoP.radioMedium.mediumLimitCache maxAntennaGain 0dB
attr unit dB
par GroundToPoP.radioMedium.mediumLimitCache minInterferenceTime 1e-12s
attr unit s
par GroundToPoP.radioMedium.mediumLimitCache maxTransmissionDuration 0.01s
attr unit s
par GroundToPoP.radioMedium.mediumLimitCache maxCommunicationRange "nan m"
attr unit m
par GroundToPoP.radioMedium.mediumLimitCache maxInterferenceRange "nan m"
attr unit m
par GroundToPoP.radioMedium.communicationCache typename "\"inet.physicallayer.wireless.common.communicationcache.VectorCommunicationCache\""
par GroundToPoP.radioMedium typename "\"inet.physicallayer.wireless.ieee80211.packetlevel.Ieee80211ScalarRadioMedium\""
par GroundToPoP.radioMedium physicalEnvironmentModule "\"physicalEnvironment\""
par GroundToPoP.radioMedium signalAnalogRepresentation "\"scalar\""
attr enum unitDisk,scalar,dimensional
par GroundToPoP.radioMedium rangeFilter "\"\""
par GroundToPoP.radioMedium radioModeFilter false
par GroundToPoP.radioMedium listeningFilter false
par GroundToPoP.radioMedium macAddressFilter false
par GroundToPoP.radioMedium recordTransmissionLog false
par GroundToPoP.radioMedium recordReceptionLog false
scalar GroundToPoP.radioMedium "transmission count" 3
scalar GroundToPoP.radioMedium "signal send count" 6
scalar GroundToPoP.radioMedium "reception computation count" 6
scalar GroundToPoP.radioMedium "interference computation count" 24
scalar GroundToPoP.radioMedium "reception decision computation count" 2
scalar GroundToPoP.radioMedium "listening decision computation count" 16
scalar GroundToPoP.radioMedium "reception cache hit" 79.310344827586
attr unit %
scalar GroundToPoP.radioMedium "interference cache hit" 66.666666666667
attr unit %
scalar GroundToPoP.radioMedium "noise cache hit" 0
attr unit %
scalar GroundToPoP.radioMedium "snir cache hit" 50
attr unit %
scalar GroundToPoP.radioMedium "reception decision cache hit" 50
attr unit %
scalar GroundToPoP.radioMedium "reception result cache hit" 0
attr unit %
par GroundToPoP.PoP.radioIn[0].channel typename "\"ned.IdealChannel\""
par GroundToPoP.PoP.eth[0].phys$o.channel typename "\"ned.IdealChannel\""
par GroundToPoP.PoP.ethg$i[0].channel typename "\"ned.IdealChannel\""
par GroundToPoP.PoP.interfaceTable typename "\"inet.networklayer.common.InterfaceTable\""
par GroundToPoP.PoP.interfaceTable displayAddresses false
par GroundToPoP.PoP.macTable typename "\"inet.linklayer.ethernet.common.MacForwardingTable\""
par GroundToPoP.PoP.macTable agingTime 120s
attr unit s
par GroundToPoP.PoP.macTable forwardingTable []
attr mutable ""
par GroundToPoP.PoP.macTable forwardingTableFile "\"\""
par GroundToPoP.PoP.macTable interfaceTableModule "\"GroundToPoP.PoP.interfaceTable\""
par GroundToPoP.PoP.macTable displayStringTextFormat "\"addr: %a\\nvlan: %v\""
par GroundToPoP.PoP.mobility typename "\"inet.mobility.static.StationaryMobility\""
par GroundToPoP.PoP.mobility subjectModule "\"^\""
par GroundToPoP.PoP.mobility coordinateSystemModule "\"\""
par GroundToPoP.PoP.mobility displayStringTextFormat "\"p: %p\\nv: %v\""
attr mutable ""
par GroundToPoP.PoP.mobility updateDisplayString true
par GroundToPoP.PoP.mobility constraintAreaMinX "-inf m"
attr unit m
par GroundToPoP.PoP.mobility constraintAreaMinY "-inf m"
attr unit m
par GroundToPoP.PoP.mobility constraintAreaMinZ "-inf m"
attr unit m
par GroundToPoP.PoP.mobility constraintAreaMaxX "inf m"
attr unit m
par GroundToPoP.PoP.mobility constraintAreaMaxY "inf m"
attr unit m
par GroundToPoP.PoP.mobility constraintAreaMaxZ "inf m"
attr unit m
par GroundToPoP.PoP.mobility initialX "nan m"
attr unit m
par GroundToPoP.PoP.mobility initialY "nan m"
attr unit m
par GroundToPoP.PoP.mobility initialZ 0m
attr unit m
par GroundToPoP.PoP.mobility initialLatitude "nan deg"
attr unit deg
par GroundToPoP.PoP.mobility initialLongitude "nan deg"
attr unit deg
par GroundToPoP.PoP.mobility initialAltitude 0m
attr unit m
par GroundToPoP.PoP.mobility initialHeading 0deg
attr unit deg
par GroundToPoP.PoP.mobility initialElevation 0deg
attr unit deg
par GroundToPoP.PoP.mobility initialBank 0deg
attr unit deg
par GroundToPoP.PoP.mobility initFromDisplayString true
par GroundToPoP.PoP.mobility updateFromDisplayString true
par GroundToPoP.PoP.bridging typename "\"inet.linklayer.ieee8021d.relay.Ieee8021dRelay\""
par GroundToPoP.PoP.bridging macTableModule "\"GroundToPoP.PoP.macTable\""
par GroundToPoP.PoP.bridging interfaceTableModule "\"GroundToPoP.PoP.interfaceTable\""
par GroundToPoP.PoP.bridging displayStringTextFormat "\"proc: %p\\ndisc: %d\""
scalar GroundToPoP.PoP.bridging "processed frames" 0
scalar GroundToPoP.PoP.bridging "discarded frames" 0
scalar GroundToPoP.PoP.bridging "number of received BPDUs from STP module" 0
scalar GroundToPoP.PoP.bridging "number of received frames from network (including BPDUs)" 0
scalar GroundToPoP.PoP.bridging "number of dropped frames (including BPDUs)" 0
scalar GroundToPoP.PoP.bridging "number of delivered BPDUs to the STP module" 0
scalar GroundToPoP.PoP.bridging "number of dispatched BPDU frames to the network" 0
scalar GroundToPoP.PoP.bridging "number of dispatched non-BDPU frames to the network" 0
scalar GroundToPoP.PoP.bridging packetDropped:count 0
attr interpolationmode none
attr recordingmode count
attr title "packets dropped, count"
scalar GroundToPoP.PoP.bridging packetDropped:sum(packetBytes) 0
attr interpolationmode none
attr recordingmode sum(packetBytes)
attr title "packets dropped, sum(packetBytes)"
par GroundToPoP.PoP.bl typename "\"inet.common.MessageDispatcher\""
par GroundToPoP.PoP.bl displayStringTextFormat "\"processed %p pk (%l)\""
par GroundToPoP.PoP.bl forwardServiceRegistration true
par GroundToPoP.PoP.bl forwardProtocolRegistration true
par GroundToPoP.PoP.ethernet typename "\"inet.linklayer.ethernet.basic.EthernetEncapsulation\""
par GroundToPoP.PoP.ethernet registerProtocol true
par GroundToPoP.PoP.ethernet interfaceTableModule "\"GroundToPoP.PoP.interfaceTable\""
par GroundToPoP.PoP.ethernet fcsMode "\"computed\""
attr enum declared,computed
par GroundToPoP.PoP.ethernet stopOperationExtraTime -1s
attr unit s
par GroundToPoP.PoP.ethernet stopOperationTimeout 2s
attr unit s
scalar GroundToPoP.PoP.ethernet decapPk:count 0
attr interpolationmode none
attr recordingmode count
attr source decapPk
attr title "packets decapsulated, count"
scalar GroundToPoP.PoP.ethernet decapPk:sum(packetBytes) 0
attr interpolationmode none
attr recordingmode sum(packetBytes)
attr source decapPk
attr title "packets decapsulated, sum(packetBytes)"
scalar GroundToPoP.PoP.ethernet encapPk:count 0
attr interpolationmode none
attr recordingmode count
attr source encapPk
attr title "packets encapsulated, count"
scalar GroundToPoP.PoP.ethernet encapPk:sum(packetBytes) 0
attr interpolationmode none
attr recordingmode sum(packetBytes)
attr source encapPk
attr title "packets encapsulated, sum(packetBytes)"
scalar GroundToPoP.PoP.ethernet pauseSent:count 0
attr recordingmode count
attr title "pause sent, count"
scalar GroundToPoP.PoP.ethernet pauseSent:sum 0
attr recordingmode sum
attr title "pause sent, sum"
par GroundToPoP.PoP.li typename "\"inet.common.MessageDispatcher\""
par GroundToPoP.PoP.li displayStringTextFormat "\"processed %p pk (%l)\""
par GroundToPoP.PoP.li forwardServiceRegistration true
par GroundToPoP.PoP.li forwardProtocolRegistration true
par GroundToPoP.PoP.wlan[0].radioIn.channel typename "\"ned.IdealChannel\""
par GroundToPoP.PoP.wlan[0].llc.upperLayerOut.channel typename "\"ned.IdealChannel\""
par GroundToPoP.PoP.wlan[0].upperLayerIn.channel typename "\"ned.IdealChannel\""
par GroundToPoP.PoP.wlan[0].mib typename "\"inet.linklayer.ieee80211.mib.Ieee80211Mib\""
par GroundToPoP.PoP.wlan[0].llc typename "\"inet.linklayer.ieee80211.portal.Ieee80211Portal\""
par GroundToPoP.PoP.wlan[0].llc fcsMode "\"computed\""
attr enum declared,computed
par GroundToPoP.PoP.wlan[0].mgmt typename "\"inet.linklayer.ieee80211.mgmt.Ieee80211MgmtAp\""
par GroundToPoP.PoP.wlan[0].mgmt ssid "\"SSID\""
par GroundToPoP.PoP.wlan[0].mgmt beaconInterval 0.1s
attr unit s
par GroundToPoP.PoP.wlan[0].mgmt numAuthSteps 4
par GroundToPoP.PoP.wlan[0].mgmt interfaceTableModule "\"GroundToPoP.PoP.interfaceTable\""
par GroundToPoP.PoP.wlan[0].mgmt radioModule "\"^.radio\""
par GroundToPoP.PoP.wlan[0].mgmt mibModule "\"GroundToPoP.PoP.wlan[0].mib\""
par GroundToPoP.PoP.wlan[0].mgmt macModule "\"GroundToPoP.PoP.wlan[0].mac\""
par GroundToPoP.PoP.wlan[0].mac.dcf.channelAccess.pendingQueue typename "\"inet.linklayer.ieee80211.mac.queue.PendingQueue\""
par GroundToPoP.PoP.wlan[0].mac.dcf.channelAccess.pendingQueue displayStringTextFormat "\"contains %p pk (%l) pushed %u\\npulled %o removed %r dropped %d\""
par GroundToPoP.PoP.wlan[0].mac.dcf.channelAccess.pendingQueue packetCapacity 100
par GroundToPoP.PoP.wlan[0].mac.dcf.channelAccess.pendingQueue dataCapacity -1b
attr unit b
par GroundToPoP.PoP.wlan[0].mac.dcf.channelAccess.pendingQueue dropperClass "\"inet::queueing::PacketAtCollectionEndDropper\""
par GroundToPoP.PoP.wlan[0].mac.dcf.channelAccess.pendingQueue comparatorClass "\"inet::ieee80211::MgmtOverDataComparator\""
par GroundToPoP.PoP.wlan[0].mac.dcf.channelAccess.pendingQueue bufferModule "\"\""
scalar GroundToPoP.PoP.wlan[0].mac.dcf.channelAccess.pendingQueue queueLength:last 0
attr autoWarmupFilter false
attr interpolationmode sample-hold
attr recordingmode last
attr source "warmup(atomic(constant0(packetPushEnded) + count(packetPushStarted) - count(packetPulled) - count(packetRemoved) - count(packetDropped)))"
attr title "queue length, last"
attr unit pk
scalar GroundToPoP.PoP.wlan[0].mac.dcf.channelAccess.pendingQueue queueLength:max 1
attr autoWarmupFilter false
attr interpolationmode sample-hold
attr recordingmode max
attr source "warmup(atomic(constant0(packetPushEnded) + count(packetPushStarted) - count(packetPulled) - count(packetRemoved) - count(packetDropped)))"
attr title "queue length, max"
attr unit pk
scalar GroundToPoP.PoP.wlan[0].mac.dcf.channelAccess.pendingQueue queueLength:timeavg 0
attr autoWarmupFilter false
attr interpolationmode sample-hold
attr recordingmode timeavg
attr source "warmup(atomic(constant0(packetPushEnded) + count(packetPushStarted) - count(packetPulled) - count(packetRemoved) - count(packetDropped)))"
attr title "queue length, timeavg"
attr unit pk
scalar GroundToPoP.PoP.wlan[0].mac.dcf.channelAccess.pendingQueue queueBitLength:last 0
attr autoWarmupFilter false
attr interpolationmode sample-hold
attr recordingmode last
attr source "warmup(atomic(constant0(packetPushEnded) + sum(packetLength(packetPushStarted)) - sum(packetLength(packetPulled)) - sum(packetLength(packetRemoved)) - sum(packetLength(packetDropped))))"
attr title "queue bit length, last"
attr unit b
scalar GroundToPoP.PoP.wlan[0].mac.dcf.channelAccess.pendingQueue queueBitLength:max 384
attr autoWarmupFilter false
attr interpolationmode sample-hold
attr recordingmode max
attr source "warmup(atomic(constant0(packetPushEnded) + sum(packetLength(packetPushStarted)) - sum(packetLength(packetPulled)) - sum(packetLength(packetRemoved)) - sum(packetLength(packetDropped))))"
attr title "queue bit length, max"
attr unit b
scalar GroundToPoP.PoP.wlan[0].mac.dcf.channelAccess.pendingQueue queueBitLength:timeavg 0
attr autoWarmupFilter false
attr interpolationmode sample-hold
attr recordingmode timeavg
attr source "warmup(atomic(constant0(packetPushEnded) + sum(packetLength(packetPushStarted)) - sum(packetLength(packetPulled)) - sum(packetLength(packetRemoved)) - sum(packetLength(packetDropped))))"
attr title "queue bit length, timeavg"
attr unit b
statistic GroundToPoP.PoP.wlan[0].mac.dcf.channelAccess.pendingQueue queueingTime:histogram
field count 3
field mean 0
field stddev 0
field min 0
field max 0
field sum 0
field sqrsum 0
attr interpolationmode none
attr recordingmode histogram
attr source queueingTime(packetPulled)
attr title "queueing times"
attr unit s
bin	-inf	0
bin	-0.5	0
bin	-0.48	0
bin	-0.46	0
bin	-0.44	0
bin	-0.42	0
bin	-0.4	0
bin	-0.38	0
bin	-0.36	0
bin	-0.34	0
bin	-0.32	0
bin	-0.3	0
bin	-0.28	0
bin	-0.26	0
bin	-0.24	0
bin	-0.22	0
bin	-0.2	0
bin	-0.18	0
bin	-0.16	0
bin	-0.14	0
bin	-0.12	0
bin	-0.1	0
bin	-0.08	0
bin	-0.06	0
bin	-0.04	0
bin	-0.02	0
bin	0	3
bin	0.02	0
bin	0.04	0
bin	0.06	0
bin	0.08	0
bin	0.1	0
bin	0.12	0
bin	0.14	0
bin	0.16	0
bin	0.18	0
bin	0.2	0
bin	0.22	0
bin	0.24	0
bin	0.26	0
bin	0.28	0
bin	0.3	0
bin	0.32	0
bin	0.34	0
bin	0.36	0
bin	0.38	0
bin	0.4	0
bin	0.42	0
bin	0.44	0
bin	0.46	0
bin	0.48	0
bin	0.5	0
scalar GroundToPoP.PoP.wlan[0].mac.dcf.channelAccess.pendingQueue outgoingPackets:count 3
attr recordingmode count
attr source packetPulled
attr title "outgoing packets, count"
attr unit pk
scalar GroundToPoP.PoP.wlan[0].mac.dcf.channelAccess.pendingQueue outgoingPacketLengths:sum 1152
attr interpolationmode none
attr recordingmode sum
attr source packetLength(packetPulled)
attr title "outgoing packet lengths, sum"
attr unit b
statistic GroundToPoP.PoP.wlan[0].mac.dcf.channelAccess.pendingQueue outgoingPacketLengths:histogram
field count 3
field mean 384
field stddev 0
field min 384
field max 384
field sum 1152
field sqrsum 442368
attr interpolationmode none
attr recordingmode histogram
attr source packetLength(packetPulled)
attr title "outgoing packet lengths"
attr unit b
bin	-inf	0
bin	383	0
bin	384	3
bin	385	0
statistic GroundToPoP.PoP.wlan[0].mac.dcf.channelAccess.pendingQueue flowQueueingTime:histogram
field count 0
field mean nan
field stddev nan
field min nan
field max nan
field sum 0
field sqrsum 0
attr interpolationmode none
attr recordingmode histogram
attr source queueingTime(demuxFlow(packetPulled))
attr title "flow queueing times"
attr unit s
bin	-inf	0
bin	0	0
bin	1	0
scalar GroundToPoP.PoP.wlan[0].mac.dcf.channelAccess.pendingQueue incomingPackets:count 3
attr recordingmode count
attr source packetPushStarted
attr title "incoming packets, count"
attr unit pk
scalar GroundToPoP.PoP.wlan[0].mac.dcf.channelAccess.pendingQueue incomingPacketLengths:sum 1152
attr interpolationmode none
attr recordingmode sum
attr source packetLength(packetPushStarted)
attr title "incoming packet lengths, sum"
attr unit b
statistic GroundToPoP.PoP.wlan[0].mac.dcf.channelAccess.pendingQueue incomingPacketLengths:histogram
field count 3
field mean 384
field stddev 0
field min 384
field max 384
field sum 1152
field sqrsum 442368
attr interpolationmode none
attr recordingmode histogram
attr source packetLength(packetPushStarted)
attr title "incoming packet lengths"
attr unit b
bin	-inf	0
bin	383	0
bin	384	3
bin	385	0
scalar GroundToPoP.PoP.wlan[0].mac.dcf.channelAccess.pendingQueue droppedPacketsQueueOverflow:count 0
attr interpolationmode none
attr recordingmode count
attr source packetDropReasonIsQueueOverflow(packetDropped)
attr title "dropped packets: queue overflow, count"
attr unit pk
scalar GroundToPoP.PoP.wlan[0].mac.dcf.channelAccess.pendingQueue droppedPacketLengthsQueueOverflow:sum 0
attr interpolationmode none
attr recordingmode sum
attr source packetLength(packetDropReasonIsQueueOverflow(packetDropped))
attr title "dropped packet lengths: queue overflow, sum"
attr unit b
par GroundToPoP.PoP.wlan[0].mac.dcf.channelAccess.inProgressFrames typename "\"inet.linklayer.ieee80211.mac.queue.InProgressFrames\""
par GroundToPoP.PoP.wlan[0].mac.dcf.channelAccess.inProgressFrames pendingQueueModule "\"^.pendingQueue\""
par GroundToPoP.PoP.wlan[0].mac.dcf.channelAccess.inProgressFrames originatorMacDataServiceModule "\"^.^.originatorMacDataService\""
par GroundToPoP.PoP.wlan[0].mac.dcf.channelAccess.inProgressFrames ackHandlerModule "\"^.^.ackHandler\""
statistic GroundToPoP.PoP.wlan[0].mac.dcf.channelAccess.inProgressFrames queueingTime:histogram
field count 3
field mean 4.6e-05
field stddev 0
field min 4.6e-05
field max 4.6e-05
field sum 0.000138
field sqrsum 6.348e-09
attr interpolationmode none
attr recordingmode histogram
attr source queueingTime(packetDequeued)
attr title "queueing times"
bin	-inf	0
bin	0	3
bin	0.01	0
bin	0.02	0
bin	0.03	0
bin	0.04	0
bin	0.05	0
bin	0.06	0
bin	0.07	0
bin	0.08	0
bin	0.09	0
bin	0.1	0
bin	0.11	0
bin	0.12	0
bin	0.13	0
bin	0.14	0
bin	0.15	0
bin	0.16	0
bin	0.17	0
bin	0.18	0
bin	0.19	0
bin	0.2	0
bin	0.21	0
bin	0.22	0
bin	0.23	0
bin	0.24	0
bin	0.25	0
bin	0.26	0
bin	0.27	0
bin	0.28	0
bin	0.29	0
bin	0.3	0
bin	0.31	0
bin	0.32	0
bin	0.33	0
bin	0.34	0
bin	0.35	0
bin	0.36	0
bin	0.37	0
bin	0.38	0
bin	0.39	0
bin	0.4	0
bin	0.41	0
bin	0.42	0
bin	0.43	0
bin	0.44	0
bin	0.45	0
bin	0.46	0
bin	0.47	0
bin	0.48	0
bin	0.49	0
bin	0.5	0
bin	0.51	0
scalar GroundToPoP.PoP.wlan[0].mac.dcf.channelAccess.inProgressFrames queueLength:max 1
attr autoWarmupFilter false
attr interpolationmode sample-hold
attr recordingmode max
attr source "warmup(count(packetEnqueued) - count(packetDequeued))"
attr title "queue length, max"
scalar GroundToPoP.PoP.wlan[0].mac.dcf.channelAccess.inProgressFrames queueLength:timeavg 0.00054216628852598
attr autoWarmupFilter false
attr interpolationmode sample-hold
attr recordingmode timeavg
attr source "warmup(count(packetEnqueued) - count(packetDequeued))"
attr title "queue length, timeavg"
par GroundToPoP.PoP.wlan[0].mac.dcf.channelAccess.contention typename "\"inet.linklayer.ieee80211.mac.contention.Contention\""
par GroundToPoP.PoP.wlan[0].mac.dcf.channelAccess.contention initialChannelBusy true
par GroundToPoP.PoP.wlan[0].mac.dcf.channelAccess.contention backoffOptimization true
scalar GroundToPoP.PoP.wlan[0].mac.dcf.channelAccess.contention stateChanged:count 26
attr enum IDLE,DEFER,IFS_AND_BACKOFF
attr interpolationmode none
attr recordingmode count
attr title "contention state changed, count"
attr type enum
scalar GroundToPoP.PoP.wlan[0].mac.dcf.channelAccess.contention channelAccessGranted:count 3
attr recordingmode count
attr title "channel access granted, count"
par GroundToPoP.PoP.wlan[0].mac.dcf.channelAccess typename "\"inet.linklayer.ieee80211.mac.channelaccess.Dcaf\""
par GroundToPoP.PoP.wlan[0].mac.dcf.channelAccess difsn -1
par GroundToPoP.PoP.wlan[0].mac.dcf.channelAccess cwMin -1
par GroundToPoP.PoP.wlan[0].mac.dcf.channelAccess cwMax -1
par GroundToPoP.PoP.wlan[0].mac.dcf.channelAccess rxModule "\"^.^.rx\""
scalar GroundToPoP.PoP.wlan[0].mac.dcf.channelAccess channelOwnershipChanged:count 6
attr interpolationmode sample-hold
attr recordingmode count
attr title "channel ownership, count"
par GroundToPoP.PoP.wlan[0].mac.dcf.originatorMacDataService.fragmentationPolicy typename "\"inet.linklayer.ieee80211.mac.fragmentation.BasicFragmentationPolicy\""
par GroundToPoP.PoP.wlan[0].mac.dcf.originatorMacDataService.fragmentationPolicy fragmentationThreshold 1500B
attr unit B
par GroundToPoP.PoP.wlan[0].mac.dcf.originatorMacDataService typename "\"inet.linklayer.ieee80211.mac.originator.OriginatorMacDataService\""
scalar GroundToPoP.PoP.wlan[0].mac.dcf.originatorMacDataService packetAggregated:count 0
attr recordingmode count
attr title "packets aggregated, count"
scalar GroundToPoP.PoP.wlan[0].mac.dcf.originatorMacDataService packetFragmented:count 0
attr recordingmode count
attr title "packets fragmented, count"
par GroundToPoP.PoP.wlan[0].mac.dcf.recipientMacDataService typename "\"inet.linklayer.ieee80211.mac.recipient.RecipientMacDataService\""
scalar GroundToPoP.PoP.wlan[0].mac.dcf.recipientMacDataService packetDropDuplicateDetected:count 0
attr interpolationmode none
attr recordingmode count
attr source packetDropReasonIsDuplicateDetected(packetDropped)
attr title "packet drops: duplicate detected, count"
scalar GroundToPoP.PoP.wlan[0].mac.dcf.recipientMacDataService packetDropDuplicateDetected:sum(packetBytes) 0
attr interpolationmode none
attr recordingmode sum(packetBytes)
attr source packetDropReasonIsDuplicateDetected(packetDropped)
attr title "packet drops: duplicate detected, sum(packetBytes)"
scalar GroundToPoP.PoP.wlan[0].mac.dcf.recipientMacDataService packetDeaggregated:count 0
attr recordingmode count
attr title "packets deaggregated, count"
scalar GroundToPoP.PoP.wlan[0].mac.dcf.recipientMacDataService packetDefragmented:count 0
attr recordingmode count
attr title "packets defragmented, count"
par GroundToPoP.PoP.wlan[0].mac.dcf.rateSelection typename "\"inet.linklayer.ieee80211.mac.rateselection.RateSelection\""
par GroundToPoP.PoP.wlan[0].mac.dcf.rateSelection rateControlModule "\"^.rateControl\""
par GroundToPoP.PoP.wlan[0].mac.dcf.rateSelection multicastFrameBitrate -1bps
attr unit bps
par GroundToPoP.PoP.wlan[0].mac.dcf.rateSelection responseAckFrameBitrate -1bps
attr unit bps
par GroundToPoP.PoP.wlan[0].mac.dcf.rateSelection responseCtsFrameBitrate -1bps
attr unit bps
par GroundToPoP.PoP.wlan[0].mac.dcf.rateSelection dataFrameBitrate -1bps
attr unit bps
par GroundToPoP.PoP.wlan[0].mac.dcf.rateSelection dataFrameBandwidth "nan Hz"
attr unit Hz
par GroundToPoP.PoP.wlan[0].mac.dcf.rateSelection dataFrameNumSpatialStreams -1
par GroundToPoP.PoP.wlan[0].mac.dcf.rateSelection mgmtFrameBitrate -1bps
attr unit bps
par GroundToPoP.PoP.wlan[0].mac.dcf.rateSelection controlFrameBitrate -1bps
attr unit bps
par GroundToPoP.PoP.wlan[0].mac.dcf.recoveryProcedure typename "\"inet.linklayer.ieee80211.mac.originator.NonQosRecoveryProcedure\""
par GroundToPoP.PoP.wlan[0].mac.dcf.recoveryProcedure cwCalculatorModule "\"^.channelAccess\""
par GroundToPoP.PoP.wlan[0].mac.dcf.recoveryProcedure rtsPolicyModule "\"^.rtsPolicy\""
par GroundToPoP.PoP.wlan[0].mac.dcf.recoveryProcedure shortRetryLimit 7
par GroundToPoP.PoP.wlan[0].mac.dcf.recoveryProcedure longRetryLimit 4
scalar GroundToPoP.PoP.wlan[0].mac.dcf.recoveryProcedure retryLimitReached:count 0
attr recordingmode count
attr title "retry limit reached, count"
par GroundToPoP.PoP.wlan[0].mac.dcf.originatorProtectionMechanism typename "\"inet.linklayer.ieee80211.mac.protectionmechanism.OriginatorProtectionMechanism\""
par GroundToPoP.PoP.wlan[0].mac.dcf.originatorProtectionMechanism rateSelectionModule "\"^.rateSelection\""
par GroundToPoP.PoP.wlan[0].mac.dcf.ackHandler typename "\"inet.linklayer.ieee80211.mac.originator.AckHandler\""
par GroundToPoP.PoP.wlan[0].mac.dcf.originatorAckPolicy typename "\"inet.linklayer.ieee80211.mac.originator.OriginatorAckPolicy\""
par GroundToPoP.PoP.wlan[0].mac.dcf.originatorAckPolicy rateSelectionModule "\"^.rateSelection\""
par GroundToPoP.PoP.wlan[0].mac.dcf.originatorAckPolicy ackTimeout -1s
attr unit s
par GroundToPoP.PoP.wlan[0].mac.dcf.recipientAckPolicy typename "\"inet.linklayer.ieee80211.mac.recipient.RecipientAckPolicy\""
par GroundToPoP.PoP.wlan[0].mac.dcf.recipientAckPolicy rateSelectionModule "\"^.rateSelection\""
par GroundToPoP.PoP.wlan[0].mac.dcf.rtsPolicy typename "\"inet.linklayer.ieee80211.mac.originator.RtsPolicy\""
par GroundToPoP.PoP.wlan[0].mac.dcf.rtsPolicy rateSelectionModule "\"^.rateSelection\""
par GroundToPoP.PoP.wlan[0].mac.dcf.rtsPolicy ctsTimeout -1s
attr unit s
par GroundToPoP.PoP.wlan[0].mac.dcf.rtsPolicy rtsThreshold 2346B
attr unit B
par GroundToPoP.PoP.wlan[0].mac.dcf.ctsPolicy typename "\"inet.linklayer.ieee80211.mac.recipient.CtsPolicy\""
par GroundToPoP.PoP.wlan[0].mac.dcf.ctsPolicy rxModule "\"^.^.rx\""
par GroundToPoP.PoP.wlan[0].mac.dcf.ctsPolicy rateSelectionModule "\"^.rateSelection\""
par GroundToPoP.PoP.wlan[0].mac.dcf typename "\"inet.linklayer.ieee80211.mac.coordinationfunction.Dcf\""
par GroundToPoP.PoP.wlan[0].mac.dcf rxModule "\"^.rx\""
par GroundToPoP.PoP.wlan[0].mac.dcf txModule "\"^.tx\""
scalar GroundToPoP.PoP.wlan[0].mac.dcf packetReceivedFromPeer:count 0
attr interpolationmode none
attr recordingmode count
attr title "packets received, count"
scalar GroundToPoP.PoP.wlan[0].mac.dcf packetReceivedFromPeer:sum(packetBytes) 0
attr interpolationmode none
attr recordingmode sum(packetBytes)
attr title "packets received, sum(packetBytes)"
scalar GroundToPoP.PoP.wlan[0].mac.dcf packetReceivedFromPeerUnicast:count 0
attr interpolationmode none
attr recordingmode count
attr source ieee80211Unicast(packetReceivedFromPeer)
attr title "packets received: unicast, count"
scalar GroundToPoP.PoP.wlan[0].mac.dcf packetReceivedFromPeerUnicast:sum(packetBytes) 0
attr interpolationmode none
attr recordingmode sum(packetBytes)
attr source ieee80211Unicast(packetReceivedFromPeer)
attr title "packets received: unicast, sum(packetBytes)"
scalar GroundToPoP.PoP.wlan[0].mac.dcf packetReceivedFromPeerMulticast:count 0
attr interpolationmode none
attr recordingmode count
attr source ieee80211Multicast(packetReceivedFromPeer)
attr title "packets received: multicast, count"
scalar GroundToPoP.PoP.wlan[0].mac.dcf packetReceivedFromPeerMulticast:sum(packetBytes) 0
attr interpolationmode none
attr recordingmode sum(packetBytes)
attr source ieee80211Multicast(packetReceivedFromPeer)
attr title "packets received: multicast, sum(packetBytes)"
scalar GroundToPoP.PoP.wlan[0].mac.dcf packetReceivedFromPeerBroadcast:count 0
attr interpolationmode none
attr recordingmode count
attr source ieee80211Broadcast(packetReceivedFromPeer)
attr title "packets received: broadcast, count"
scalar GroundToPoP.PoP.wlan[0].mac.dcf packetReceivedFromPeerBroadcast:sum(packetBytes) 0
attr interpolationmode none
attr recordingmode sum(packetBytes)
attr source ieee80211Broadcast(packetReceivedFromPeer)
attr title "packets received: broadcast, sum(packetBytes)"
scalar GroundToPoP.PoP.wlan[0].mac.dcf packetReceivedFromPeerWithRetry:count 0
attr interpolationmode none
attr recordingmode count
attr source ieee80211Retry(packetReceivedFromPeer)
attr title "packets received: with retry, count"
scalar GroundToPoP.PoP.wlan[0].mac.dcf packetReceivedFromPeerWithRetry:sum(packetBytes) 0
attr interpolationmode none
attr recordingmode sum(packetBytes)
attr source ieee80211Retry(packetReceivedFromPeer)
attr title "packets received: with retry, sum(packetBytes)"
scalar GroundToPoP.PoP.wlan[0].mac.dcf packetReceivedFromPeerWithoutRetry:count 0
attr interpolationmode none
attr recordingmode count
attr source ieee80211NotRetry(packetReceivedFromPeer)
attr title "packets received: without retry, count"
scalar GroundToPoP.PoP.wlan[0].mac.dcf packetReceivedFromPeerWithoutRetry:sum(packetBytes) 0
attr interpolationmode none
attr recordingmode sum(packetBytes)
attr source ieee80211NotRetry(packetReceivedFromPeer)
attr title "packets received: without retry, sum(packetBytes)"
scalar GroundToPoP.PoP.wlan[0].mac.dcf packetSentToPeer:count 3
attr interpolationmode none
attr recordingmode count
attr title "packets sent, count"
scalar GroundToPoP.PoP.wlan[0].mac.dcf packetSentToPeer:sum(packetBytes) 144
attr interpolationmode none
attr recordingmode sum(packetBytes)
attr title "packets sent, sum(packetBytes)"
scalar GroundToPoP.PoP.wlan[0].mac.dcf packetSentToPeerUnicast:count 0
attr interpolationmode none
attr recordingmode count
attr source ieee80211Unicast(packetSentToPeer)
attr title "packets sent: unicast, count"
scalar GroundToPoP.PoP.wlan[0].mac.dcf packetSentToPeerUnicast:sum(packetBytes) 0
attr interpolationmode none
attr recordingmode sum(packetBytes)
attr source ieee80211Unicast(packetSentToPeer)
attr title "packets sent: unicast, sum(packetBytes)"
scalar GroundToPoP.PoP.wlan[0].mac.dcf packetSentToPeerMulticast:count 3
attr interpolationmode none
attr recordingmode count
attr source ieee80211Multicast(packetSentToPeer)
attr title "packets sent: multicast, count"
[...]
attr title "packet drop: not addressed to us, sum(packetBytes)"
scalar GroundToPoP.groundStation.eth[0].mac rxPausePkUnits:count 0
attr interpolationmode none
attr recordingmode count
attr title "pause units received, count"
scalar GroundToPoP.groundStation.eth[0].mac rxPausePkUnits:sum 0
attr interpolationmode none
attr recordingmode sum
attr title "pause units received, sum"
scalar GroundToPoP.groundStation.eth[0].mac txPausePkUnits:count 0
attr interpolationmode none
attr recordingmode count
attr title "pause units sent, count"
scalar GroundToPoP.groundStation.eth[0].mac txPausePkUnits:sum 0
attr interpolationmode none
attr recordingmode sum
attr title "pause units sent, sum"
scalar GroundToPoP.groundStation.eth[0].mac rxPkOk:count 0
attr interpolationmode none
attr recordingmode count
attr source rxPkOk
attr title "packets received OK, count"
scalar GroundToPoP.groundStation.eth[0].mac rxPkOk:sum(packetBytes) 0
attr interpolationmode none
attr recordingmode sum(packetBytes)
attr source rxPkOk
attr title "packets received OK, sum(packetBytes)"
par GroundToPoP.groundStation.eth[0] typename "\"inet.linklayer.ethernet.EthernetInterface\""
par GroundToPoP.groundStation.eth[0] displayStringTextFormat "\"%a (%i)\\n%m\""
par GroundToPoP.groundStation.eth[0] recordPcap false
par GroundToPoP.groundStation.eth[0] numPcapRecorders 0
par GroundToPoP.groundStation.eth[0] interfaceTableModule "\"GroundToPoP.groundStation.interfaceTable\""
par GroundToPoP.groundStation.eth[0] protocol "\"ethernetmac\""
par GroundToPoP.groundStation.eth[0] address "\"0A-AA-00-00-00-05\""
attr mutable ""
par GroundToPoP.groundStation.eth[0] duplexMode true
par GroundToPoP.groundStation.eth[0] csmacdSupport false
par GroundToPoP.groundStation.eth[0] bitrate 0bps
attr unit bps
par GroundToPoP.groundStation.eth[0] fcsMode "\"computed\""
attr enum declared,computed
scalar GroundToPoP.groundStation.eth[0] packetDropInterfaceDown:count 0
attr interpolationmode none
attr recordingmode count
attr source packetDropReasonIsInterfaceDown(packetDropped)
attr title "packet drops: interface down, count"
scalar GroundToPoP.groundStation.eth[0] packetDropInterfaceDown:sum(packetBytes) 0
attr interpolationmode none
attr recordingmode sum(packetBytes)
attr source packetDropReasonIsInterfaceDown(packetDropped)
attr title "packet drops: interface down, sum(packetBytes)"
scalar GroundToPoP.groundStation.eth[0] packetDropNoCarrier:count 0
attr interpolationmode none
attr recordingmode count
attr source packetDropReasonIsNoCarrier(packetDropped)
attr title "packet drops: no carrier, count"
scalar GroundToPoP.groundStation.eth[0] packetDropNoCarrier:sum(packetBytes) 0
attr interpolationmode none
attr recordingmode sum(packetBytes)
attr source packetDropReasonIsNoCarrier(packetDropped)
attr title "packet drops: no carrier, sum(packetBytes)"
par GroundToPoP.groundStation.ipv4.transportIn.channel typename "\"ned.IdealChannel\""
par GroundToPoP.groundStation.ipv4.up.out[0].channel typename "\"ned.IdealChannel\""
par GroundToPoP.groundStation.ipv4.lp.out[2].channel typename "\"ned.IdealChannel\""
par GroundToPoP.groundStation.ipv4.ifIn.channel typename "\"ned.IdealChannel\""
par GroundToPoP.groundStation.ipv4.configurator typename "\"inet.networklayer.configurator.ipv4.Ipv4NodeConfigurator\""
par GroundToPoP.groundStation.ipv4.configurator interfaceTableModule "\"GroundToPoP.groundStation.interfaceTable\""
par GroundToPoP.groundStation.ipv4.configurator routingTableModule "\"GroundToPoP.groundStation.ipv4.routingTable\""
par GroundToPoP.groundStation.ipv4.configurator networkConfiguratorModule "\"configurator\""
par GroundToPoP.groundStation.ipv4.configurator configureRoutingTable true
par GroundToPoP.groundStation.ipv4.routingTable typename "\"inet.networklayer.ipv4.Ipv4RoutingTable\""
par GroundToPoP.groundStation.ipv4.routingTable interfaceTableModule "\"GroundToPoP.groundStation.interfaceTable\""
par GroundToPoP.groundStation.ipv4.routingTable routerId "\"auto\""
par GroundToPoP.groundStation.ipv4.routingTable netmaskRoutes "\"*\""
par GroundToPoP.groundStation.ipv4.routingTable forwarding true
par GroundToPoP.groundStation.ipv4.routingTable multicastForwarding false
par GroundToPoP.groundStation.ipv4.routingTable useAdminDist false
par GroundToPoP.groundStation.ipv4.routingTable routingFile "\"\""
par GroundToPoP.groundStation.ipv4.natTable typename "\"inet.networklayer.ipv4.Ipv4NatTable\""
par GroundToPoP.groundStation.ipv4.natTable networkProtocolModule "\"^.ip\""
par GroundToPoP.groundStation.ipv4.natTable config "<config/> at content:1"
par GroundToPoP.groundStation.ipv4.up typename "\"inet.common.MessageDispatcher\""
par GroundToPoP.groundStation.ipv4.up displayStringTextFormat "\"processed %p pk (%l)\""
par GroundToPoP.groundStation.ipv4.up forwardServiceRegistration true
par GroundToPoP.groundStation.ipv4.up forwardProtocolRegistration true
par GroundToPoP.groundStation.ipv4.igmp typename "\"inet.networklayer.ipv4.Igmpv2\""
par GroundToPoP.groundStation.ipv4.igmp interfaceTableModule "\"GroundToPoP.groundStation.interfaceTable\""
par GroundToPoP.groundStation.ipv4.igmp routingTableModule "\"GroundToPoP.groundStation.ipv4.routingTable\""
par GroundToPoP.groundStation.ipv4.igmp crcMode "\"computed\""
attr enum declared,computed
par GroundToPoP.groundStation.ipv4.igmp enabled true
par GroundToPoP.groundStation.ipv4.igmp robustnessVariable 2
par GroundToPoP.groundStation.ipv4.igmp queryInterval 125s
attr unit s
par GroundToPoP.groundStation.ipv4.igmp queryResponseInterval 10s
attr unit s
par GroundToPoP.groundStation.ipv4.igmp groupMembershipInterval 260s
attr unit s
par GroundToPoP.groundStation.ipv4.igmp otherQuerierPresentInterval 255s
attr unit s
par GroundToPoP.groundStation.ipv4.igmp startupQueryInterval 31.25s
attr unit s
par GroundToPoP.groundStation.ipv4.igmp startupQueryCount 2
par GroundToPoP.groundStation.ipv4.igmp lastMemberQueryInterval 1s
attr unit s
par GroundToPoP.groundStation.ipv4.igmp lastMemberQueryCount 2
par GroundToPoP.groundStation.ipv4.igmp unsolicitedReportInterval 10s
attr unit s
par GroundToPoP.groundStation.ipv4.icmp typename "\"inet.networklayer.ipv4.Icmp\""
par GroundToPoP.groundStation.ipv4.icmp interfaceTableModule "\"GroundToPoP.groundStation.interfaceTable\""
par GroundToPoP.groundStation.ipv4.icmp routingTableModule "\"GroundToPoP.groundStation.ipv4.routingTable\""
par GroundToPoP.groundStation.ipv4.icmp crcMode "\"computed\""
attr enum declared,computed
attr mutable ""
par GroundToPoP.groundStation.ipv4.icmp quoteLength 8B
attr mutable ""
attr unit B
par GroundToPoP.groundStation.ipv4.mp typename "\"inet.common.MessageDispatcher\""
par GroundToPoP.groundStation.ipv4.mp displayStringTextFormat "\"processed %p pk (%l)\""
par GroundToPoP.groundStation.ipv4.mp forwardServiceRegistration true
par GroundToPoP.groundStation.ipv4.mp forwardProtocolRegistration true
par GroundToPoP.groundStation.ipv4.ip typename "\"inet.networklayer.ipv4.Ipv4\""
par GroundToPoP.groundStation.ipv4.ip interfaceTableModule "\"GroundToPoP.groundStation.interfaceTable\""
par GroundToPoP.groundStation.ipv4.ip routingTableModule "\"GroundToPoP.groundStation.ipv4.routingTable\""
par GroundToPoP.groundStation.ipv4.ip arpModule "\"GroundToPoP.groundStation.ipv4.arp\""
par GroundToPoP.groundStation.ipv4.ip icmpModule "\"GroundToPoP.groundStation.ipv4.icmp\""
par GroundToPoP.groundStation.ipv4.ip crcMode "\"computed\""
attr enum declared,computed
par GroundToPoP.groundStation.ipv4.ip timeToLive 32
par GroundToPoP.groundStation.ipv4.ip multicastTimeToLive 32
par GroundToPoP.groundStation.ipv4.ip fragmentTimeout 60s
attr unit s
par GroundToPoP.groundStation.ipv4.ip limitedBroadcast false
par GroundToPoP.groundStation.ipv4.ip directBroadcastInterfaces "\"\""
scalar GroundToPoP.groundStation.ipv4.ip packetDropAddressResolutionFailed:count 0
attr interpolationmode none
attr recordingmode count
attr source packetDropReasonIsAddressResolutionFailed(packetDropped)
attr title "packet drop: address resolution failed, count"
scalar GroundToPoP.groundStation.ipv4.ip packetDropAddressResolutionFailed:sum(packetBytes) 0
attr interpolationmode none
attr recordingmode sum(packetBytes)
attr source packetDropReasonIsAddressResolutionFailed(packetDropped)
attr title "packet drop: address resolution failed, sum(packetBytes)"
scalar GroundToPoP.groundStation.ipv4.ip packetDropHopLimitReached:count 0
attr interpolationmode none
attr recordingmode count
attr source packetDropReasonIsHopLimitReached(packetDropped)
attr title "packet drop: hop limit reached, count"
scalar GroundToPoP.groundStation.ipv4.ip packetDropHopLimitReached:sum(packetBytes) 0
attr interpolationmode none
attr recordingmode sum(packetBytes)
attr source packetDropReasonIsHopLimitReached(packetDropped)
attr title "packet drop: hop limit reached, sum(packetBytes)"
scalar GroundToPoP.groundStation.ipv4.ip packetDropForwardingDisabled:count 0
attr interpolationmode none
attr recordingmode count
attr source packetDropReasonIsForwardingDisabled(packetDropped)
attr title "packet drop: forwarding disabled, count"
scalar GroundToPoP.groundStation.ipv4.ip packetDropForwardingDisabled:sum(packetBytes) 0
attr interpolationmode none
attr recordingmode sum(packetBytes)
attr source packetDropReasonIsForwardingDisabled(packetDropped)
attr title "packet drop: forwarding disabled, sum(packetBytes)"
scalar GroundToPoP.groundStation.ipv4.ip packetDropNoInterfaceFound:count 0
attr interpolationmode none
attr recordingmode count
attr source packetDropReasonIsNoInterfaceFound(packetDropped)
attr title "packet drop: no interface found, count"
scalar GroundToPoP.groundStation.ipv4.ip packetDropNoInterfaceFound:sum(packetBytes) 0
attr interpolationmode none
attr recordingmode sum(packetBytes)
attr source packetDropReasonIsNoInterfaceFound(packetDropped)
attr title "packet drop: no interface found, sum(packetBytes)"
scalar GroundToPoP.groundStation.ipv4.ip packetDropNoRouteFound:count 0
attr interpolationmode none
attr recordingmode count
attr source packetDropReasonIsNoRouteFound(packetDropped)
attr title "packet drop: no route found, count"
scalar GroundToPoP.groundStation.ipv4.ip packetDropNoRouteFound:sum(packetBytes) 0
attr interpolationmode none
attr recordingmode sum(packetBytes)
attr source packetDropReasonIsNoRouteFound(packetDropped)
attr title "packet drop: no route found, sum(packetBytes)"
scalar GroundToPoP.groundStation.ipv4.ip packetDropUndefined:count 0
attr interpolationmode none
attr recordingmode count
attr source packetDropReasonIsUndefined(packetDropped)
attr title "packet drop: undefined, count"
scalar GroundToPoP.groundStation.ipv4.ip packetDropUndefined:sum(packetBytes) 0
attr interpolationmode none
attr recordingmode sum(packetBytes)
attr source packetDropReasonIsUndefined(packetDropped)
attr title "packet drop: undefined, sum(packetBytes)"
par GroundToPoP.groundStation.ipv4.arp typename "\"inet.networklayer.arp.ipv4.GlobalArp\""
par GroundToPoP.groundStation.ipv4.arp interfaceTableModule "\"GroundToPoP.groundStation.interfaceTable\""
par GroundToPoP.groundStation.ipv4.arp addressType "\"ipv4\""
attr enum ipv4,ipv6,mac,moduleid,modulepath
par GroundToPoP.groundStation.ipv4.lp typename "\"inet.common.MessageDispatcher\""
par GroundToPoP.groundStation.ipv4.lp displayStringTextFormat "\"processed %p pk (%l)\""
par GroundToPoP.groundStation.ipv4.lp forwardServiceRegistration true
par GroundToPoP.groundStation.ipv4.lp forwardProtocolRegistration true
par GroundToPoP.groundStation.ipv4 typename "\"inet.networklayer.ipv4.Ipv4NetworkLayer\""
par GroundToPoP.groundStation.ipv4 forwarding true
par GroundToPoP.groundStation.ipv4 multicastForwarding false
par GroundToPoP.groundStation.ipv4 interfaceTableModule "\"GroundToPoP.groundStation.interfaceTable\""
par GroundToPoP.groundStation.ipv4 displayStringTextFormat "\"%i\""
par GroundToPoP.groundStation.nl typename "\"inet.common.MessageDispatcher\""
par GroundToPoP.groundStation.nl displayStringTextFormat "\"processed %p pk (%l)\""
par GroundToPoP.groundStation.nl forwardServiceRegistration true
par GroundToPoP.groundStation.nl forwardProtocolRegistration true
par GroundToPoP.groundStation.udp.crcInsertion typename "\"inet.transportlayer.udp.UdpCrcInsertionHook\""
par GroundToPoP.groundStation.udp typename "\"inet.transportlayer.udp.Udp\""
par GroundToPoP.groundStation.udp interfaceTableModule "\"GroundToPoP.groundStation.interfaceTable\""
par GroundToPoP.groundStation.udp icmpModule "\"^.ipv4.icmp\""
par GroundToPoP.groundStation.udp icmpv6Module "\"^.ipv6.icmpv6\""
par GroundToPoP.groundStation.udp crcMode "\"computed\""
attr enum disabled,declared,computed
par GroundToPoP.groundStation.udp defaultMulticastLoop true
scalar GroundToPoP.groundStation.udp packetReceived:count 0
attr interpolationmode none
attr recordingmode count
attr source packetReceived
attr title "packets received, count"
scalar GroundToPoP.groundStation.udp packetReceived:sum(packetBytes) 0
attr interpolationmode none
attr recordingmode sum(packetBytes)
attr source packetReceived
attr title "packets received, sum(packetBytes)"
scalar GroundToPoP.groundStation.udp packetSent:count 0
attr interpolationmode none
attr recordingmode count
attr source packetSent
attr title "packets sent, count"
scalar GroundToPoP.groundStation.udp packetSent:sum(packetBytes) 0
attr interpolationmode none
attr recordingmode sum(packetBytes)
attr source packetSent
attr title "packets sent, sum(packetBytes)"
scalar GroundToPoP.groundStation.udp passedUpPk:count 0
attr interpolationmode none
attr recordingmode count
attr source packetSentToUpper
attr title "packets passed up, count"
scalar GroundToPoP.groundStation.udp droppedPkWrongPort:count 0
attr interpolationmode none
attr recordingmode count
attr source packetDropReasonIsNoPortFound(packetDropped)
attr title "packets dropped (wrong port), count"
scalar GroundToPoP.groundStation.udp droppedPkBadChecksum:count 0
attr interpolationmode none
attr recordingmode count
attr source packetDropReasonIsIncorrectlyReceived(packetDropped)
attr title "packets dropped (checksum error), count"
par GroundToPoP.groundStation.tcp.crcInsertion typename "\"inet.transportlayer.tcp_common.TcpCrcInsertionHook\""
par GroundToPoP.groundStation.tcp typename "\"inet.transportlayer.tcp.Tcp\""
par GroundToPoP.groundStation.tcp crcMode "\"computed\""
attr enum declared,computed
par GroundToPoP.groundStation.tcp advertisedWindow 7504
par GroundToPoP.groundStation.tcp delayedAcksEnabled false
par GroundToPoP.groundStation.tcp nagleEnabled true
par GroundToPoP.groundStation.tcp limitedTransmitEnabled false
par GroundToPoP.groundStation.tcp increasedIWEnabled false
par GroundToPoP.groundStation.tcp sackSupport false
par GroundToPoP.groundStation.tcp windowScalingSupport false
par GroundToPoP.groundStation.tcp windowScalingFactor -1
par GroundToPoP.groundStation.tcp timestampSupport false
par GroundToPoP.groundStation.tcp mss 536
par GroundToPoP.groundStation.tcp msl 120s
attr unit s
par GroundToPoP.groundStation.tcp tcpAlgorithmClass "\"TcpReno\""
par GroundToPoP.groundStation.tcp useDataNotification false
par GroundToPoP.groundStation.tcp dupthresh 3
par GroundToPoP.groundStation.tcp initialSsthresh 4294967295
par GroundToPoP.groundStation.tcp stopOperationExtraTime 0s
attr unit s
par GroundToPoP.groundStation.tcp stopOperationTimeout 2s
attr unit s
par GroundToPoP.groundStation.tcp ecnWillingness false
par GroundToPoP.groundStation.tcp dctcpGamma 0.0625
par GroundToPoP.groundStation.tn typename "\"inet.common.MessageDispatcher\""
par GroundToPoP.groundStation.tn displayStringTextFormat "\"processed %p pk (%l)\""
par GroundToPoP.groundStation.tn forwardServiceRegistration true
par GroundToPoP.groundStation.tn forwardProtocolRegistration true
par GroundToPoP.groundStation.app[0] typename "\"inet.applications.tcpapp.TcpSessionApp\""
par GroundToPoP.groundStation.app[0] localAddress "\"\""
par GroundToPoP.groundStation.app[0] localPort -1
par GroundToPoP.groundStation.app[0] active true
par GroundToPoP.groundStation.app[0] connectAddress "\"PoP\""
par GroundToPoP.groundStation.app[0] connectPort 1000
par GroundToPoP.groundStation.app[0] dataTransferMode "\"bytecount\""
attr enum bytecount,object,bytestream
par GroundToPoP.groundStation.app[0] tOpen 1s
attr unit s
par GroundToPoP.groundStation.app[0] tSend 1.1s
attr unit s
par GroundToPoP.groundStation.app[0] sendBytes 1048576B
attr unit B
par GroundToPoP.groundStation.app[0] sendScript "\"\""
par GroundToPoP.groundStation.app[0] tClose 0s
attr unit s
par GroundToPoP.groundStation.app[0] timeToLive -1
par GroundToPoP.groundStation.app[0] dscp -1
par GroundToPoP.groundStation.app[0] tos -1
par GroundToPoP.groundStation.app[0] stopOperationExtraTime -1s
attr unit s
par GroundToPoP.groundStation.app[0] stopOperationTimeout 2s
attr unit s
scalar GroundToPoP.groundStation.app[0] bytesRcvd 0
scalar GroundToPoP.groundStation.app[0] bytesSent 0
scalar GroundToPoP.groundStation.app[0] packetReceived:count 0
attr interpolationmode none
attr recordingmode count
attr source packetReceived
attr title "packets received, count"
scalar GroundToPoP.groundStation.app[0] packetReceived:sum(packetBytes) 0
attr interpolationmode none
attr recordingmode sum(packetBytes)
attr source packetReceived
attr title "packets received, sum(packetBytes)"
statistic GroundToPoP.groundStation.app[0] endToEndDelay:histogram
field count 0
field mean nan
field stddev nan
field min nan
field max nan
field sum 0
field sqrsum 0
attr interpolationmode none
attr recordingmode histogram
attr source dataAge(packetReceived)
attr title "end-to-end delay"
attr unit s
bin	-inf	0
bin	0	0
bin	1	0
statistic GroundToPoP.groundStation.app[0] endToEndDelay:weightedHistogram
field count 0
field mean nan
field stddev nan
field min nan
field max nan
field weights 0
field weightedSum 0
field sqrSumWeights 0
field weightedSqrSum 0
attr interpolationmode none
attr recordingmode weightedHistogram
attr source dataAge(packetReceived)
attr title "end-to-end delay, weightedHistogram"
attr unit s
bin	-inf	0
bin	0	0
bin	1	0
scalar GroundToPoP.groundStation.app[0] packetSent:count 0
attr interpolationmode none
attr recordingmode count
attr source packetSent
attr title "packets sent, count"
scalar GroundToPoP.groundStation.app[0] packetSent:sum(packetBytes) 0
attr interpolationmode none
attr recordingmode sum(packetBytes)
attr source packetSent
attr title "packets sent, sum(packetBytes)"
par GroundToPoP.groundStation.at typename "\"inet.common.MessageDispatcher\""
par GroundToPoP.groundStation.at displayStringTextFormat "\"processed %p pk (%l)\""
par GroundToPoP.groundStation.at forwardServiceRegistration true
par GroundToPoP.groundStation.at forwardProtocolRegistration true
par GroundToPoP.groundStation typename "\"leosatelliteenvironment.GroundStation\""
par GroundToPoP.groundStation hasStatus false
par GroundToPoP.groundStation osgModel "\"\""
par GroundToPoP.groundStation osgModelColor "\"\""
par GroundToPoP.groundStation canvasImage "\"\""
par GroundToPoP.groundStation canvasImageColor "\"\""
par GroundToPoP.groundStation recordPcap false
par GroundToPoP.groundStation numPcapRecorders 0
par GroundToPoP.groundStation numLoInterfaces 1
par GroundToPoP.groundStation numWlanInterfaces 2
par GroundToPoP.groundStation numEthInterfaces 0
par GroundToPoP.groundStation numPppInterfaces 0
par GroundToPoP.groundStation numTunInterfaces 0
par GroundToPoP.groundStation numVirtInterfaces 0
par GroundToPoP.groundStation fcsMode "\"computed\""
attr enum declared,computed
par GroundToPoP.groundStation hasIpv4 true
par GroundToPoP.groundStation hasIpv6 false
par GroundToPoP.groundStation hasGn false
par GroundToPoP.groundStation forwarding true
par GroundToPoP.groundStation multicastForwarding false
par GroundToPoP.groundStation hasUdp true
par GroundToPoP.groundStation hasTcp true
par GroundToPoP.groundStation hasSctp false
par GroundToPoP.groundStation numApps 1
par GroundToPoP typename "\"leosatelliteenvironment.GroundToPoP\""

